/*--------------------------------*- C++ -*----------------------------------*\
  =========                 |
  \\      /  F ield         | OpenFOAM: The Open Source CFD Toolbox
   \\    /   O peration     | Website:  https://openfoam.org
    \\  /    A nd           | Version:  dev
     \\/     M anipulation  |
\*---------------------------------------------------------------------------*/
FoamFile
{
    version     2.0;
    format      ascii;
    class       dictionary;
    location    "constant";
    object      phaseProperties;
}
// * * * * * * * * * * * * * * * * * * * * * * * * * * * * * * * * * * * * * //

type populationBalanceMultiphaseSystem;

phases (air1 air2 air3 water);

populationBalances (bubbles);

air1
{
    type            pureIsothermalPhaseModel;
    diameterModel   velocityGroup;
    velocityGroupCoeffs
    {
        populationBalance    bubbles;

        formFactor      1;

        sizeGroups
        (
            f0  {d  0.021336488 ; value 0.0000000005    ;}
            f1  {d  0.022984035 ; value 0.0000000002    ;}
            f2  {d  0.024758801 ; value 0.0000000004    ;}
            f3  {d  0.02667061  ; value 0.0000000008    ;}
            f4  {d  0.028730043 ; value 0.0000000015    ;}
            f5  {d  0.030948501 ; value 0.0000000029    ;}
            f6  {d  0.033338262 ; value 0.0000000057    ;}
            f7  {d  0.035912554 ; value 0.0000000110    ;}
            f8  {d  0.038685626 ; value 0.0000000215    ;}
            f9  {d  0.041672828 ; value 0.0000000420    ;}
            f10 {d  0.044890693 ; value 0.0000000819    ;}
            f11 {d  0.048357033 ; value 0.0000001595    ;}
            f12 {d  0.052091034 ; value 0.0000003107    ;}
            f13 {d  0.056113366 ; value 0.0000006046    ;}
            f14 {d  0.060446291 ; value 0.0000011757    ;}
            f15 {d  0.065113793 ; value 0.0000022836    ;}
            f16 {d  0.070141707 ; value 0.0000044295    ;}
            f17 {d  0.075557864 ; value 0.0000085770    ;}
            f18 {d  0.081392241 ; value 0.0000165724    ;}
            f19 {d  0.087677134 ; value 0.0000319345    ;}
// ... 27 like lines cut
        );
    }

    residualAlpha   1e-6;
}

air2
{
    type            pureIsothermalPhaseModel;
    diameterModel   velocityGroup;
    velocityGroupCoeffs
    {
        populationBalance    bubbles;

        formFactor      1;

        sizeGroups
        (
            f47 {d  0.703687442 ; value 1.0000000000    ;}
            f48 {d  0.758024318 ; value 0.0000000000    ;}
            f49 {d  0.816556943 ; value 0.0000000000    ;}
            f50 {d  0.879609302 ; value 0.0000000000    ;}
            f51 {d  0.947530397 ; value 0.0000000000    ;}
            f52 {d  1.020696179 ; value 0.0000000000    ;}
            f53 {d  1.099511628 ; value 0.0000000000    ;}
            f54 {d  1.184412996 ; value 0.0000000000    ;}
            f55 {d  1.275870223 ; value 0.0000000000    ;}
        );
    }

    residualAlpha   1e-6;
}

air3
{
    type            pureIsothermalPhaseModel;
    diameterModel   velocityGroup;
    velocityGroupCoeffs
    {
        populationBalance    bubbles;

        formFactor      1;

        sizeGroups
        (
            f56 {d  1.374389535 ; value 1.0000000000    ;}
            f57 {d  1.480516246 ; value 0.0000000000    ;}
            f58 {d  1.594837779 ; value 0.0000000000    ;}
            f59 {d  1.717986918 ; value 0.0000000000    ;}
            f60 {d  1.850645307 ; value 0.0000000000    ;}
            f61 {d  1.993547224 ; value 0.0000000000    ;}
            f62 {d  2.147483648 ; value 0.0000000000    ;}
            f63 {d  2.313306634 ; value 0.0000000000    ;}
            f64 {d  2.49193403  ; value 0.0000000000    ;}
            f65 {d  2.68435456  ; value 0.0000000000    ;}
            f66 {d  2.891633292 ; value 0.0000000000    ;}
            f67 {d  3.114917538 ; value 0.0000000000    ;}
            f68 {d  3.3554432   ; value 0.0000000000    ;}
            f69 {d  3.614541615 ; value 0.0000000000    ;}
            f70 {d  3.893646922 ; value 0.0000000000    ;}
        );
    }

    residualAlpha   1e-6;
}

water
{
    type            pureIsothermalPhaseModel;
    diameterModel   constant;
    constantCoeffs
    {
        d               1e-4;
    }

    residualAlpha   1e-6;
}

populationBalanceCoeffs
{
    bubbles
    {
        continuousPhase water;

        coalescenceModels
        (
            constant
            {
                rate 1.0;
            }
        );

        binaryBreakupModels
        ();

        breakupModels
        ();

        driftModels
        ();

        nucleationModels
        ();
    }
}

blending
{
    default
    {
        type            none;
        continuousPhase water;
    }
}

surfaceTension
();

interfaceCompression
();

aspectRatio
();

drag
();

virtualMass
();

heatTransfer
();

phaseTransfer
();

lift
();

wallLubrication
();

turbulentDispersion
();

bubbleInducedTurbulence
();

// Minimum allowable pressure
pMin            10000;


// ************************************************************************* //
