/*---------------------------------------------------------------------------*\
  =========                 |
  \\      /  F ield         | OpenFOAM: The Open Source CFD Toolbox
   \\    /   O peration     | Website:  https://openfoam.org
    \\  /    A nd           | Version:  dev
     \\/     M anipulation  |
\*---------------------------------------------------------------------------*/
Build  : dev-27a117d1f441
Exec   : adiabaticFlameT controlDict
Date   : Jan 16 2013
Time   : 15:39:43
Host   : "dm"
PID    : 4485
Case   : /home/dm2/henry/OpenFOAM/OpenFOAM-dev/applications/utilities/thermophysical/adiabaticFlameT
nProcs : 1
sigFpe : Enabling floating point exception trapping (FOAM_SIGFPE).
SetNaN : Initialising allocated memory to NaN (FOAM_SETNAN).
fileModificationChecking : Monitoring run-time modified files using timeStampMaster
allowSystemOperations : Allowing user-supplied system call operations

// * * * * * * * * * * * * * * * * * * * * * * * * * * * * * * * * * * * * * //

Reading thermodynamic data dictionary
stoichiometricAirFuelMassRatio stoichiometricAirFuelMassRatio [0 0 0 0 0 0 0] 34.0741;
phi = 0.01
ft = 0.000293392
fuel fuel       1       2.01594
    200 6000    1000
    2.93287 0.000826608 -1.46402e-07 1.541e-11 -6.88805e-16 -813.066 -1.02433
    2.34433 0.00798052 -1.94782e-05 2.01572e-08 -7.37612e-12 -917.935 0.68301
;
oxidant         1       28.8503
    200 6000    1000
    3.10134 0.00124139 -4.18821e-07 6.64165e-11 -3.91278e-15 -985.276 5.35602
    3.58381 -0.000727005 1.67056e-06 -1.09178e-10 -4.31777e-13 -1050.54 3.11241
;
reactants       1       28.7381
    200 6000    1000
    3.10064 0.00123965 -4.17681e-07 6.62032e-11 -3.8993e-15 -984.555 5.32933
    3.57863 -0.000690587 1.58211e-06 -2.44153e-11 -4.60821e-13 -1049.99 3.10225
;
burntProducts   1       24.543
    200 6000    1000
    2.85694 0.00194404 -5.90217e-07 8.40966e-11 -4.49004e-15 -10976.9 6.2227
    3.76275 -0.000787587 1.93485e-06 -3.14906e-10 -3.04738e-13 -11198.7 1.64274
;
products        1       28.7983
    200 6000    1000
    3.09839 0.00124987 -4.2089e-07 6.663e-11 -3.91975e-15 -1105.92 5.36648
    3.58598 -0.000727737 1.67376e-06 -1.11662e-10 -4.30243e-13 -1173.08 3.09467
;
Tad = 334.675

phi = 0.02
ft = 0.000586612
fuel fuel       1       2.01594
    200 6000    1000
    2.93287 0.000826608 -1.46402e-07 1.541e-11 -6.88805e-16 -813.066 -1.02433
    2.34433 0.00798052 -1.94782e-05 2.01572e-08 -7.37612e-12 -917.935 0.68301
;
oxidant         1       28.8503
    200 6000    1000
    3.10134 0.00124139 -4.18821e-07 6.64165e-11 -3.91278e-15 -985.276 5.35602
    3.58381 -0.000727005 1.67056e-06 -1.09178e-10 -4.31777e-13 -1050.54 3.11241
;
reactants       1       28.6268
    200 6000    1000
    3.09994 0.00123793 -4.16552e-07 6.59917e-11 -3.88593e-15 -983.841 5.30287
    3.57349 -0.000654472 1.49439e-06 5.96414e-11 -4.89623e-13 -1049.44 3.09218
;
burntProducts   1       24.543
    200 6000    1000
    2.85694 0.00194404 -5.90217e-07 8.40966e-11 -4.49004e-15 -10976.9 6.2227
    3.76275 -0.000787587 1.93485e-06 -3.14906e-10 -3.04738e-13 -11198.7 1.64274
;
products        1       28.7465
    200 6000    1000
    3.09545 0.00125832 -4.22951e-07 6.68426e-11 -3.92669e-15 -1226.06 5.3769
    3.58813 -0.000728465 1.67693e-06 -1.14136e-10 -4.28715e-13 -1295.1 3.077
;
Tad = 369.064

phi = 0.03
ft = 0.000879661
fuel fuel       1       2.01594
    200 6000    1000
    2.93287 0.000826608 -1.46402e-07 1.541e-11 -6.88805e-16 -813.066 -1.02433
    2.34433 0.00798052 -1.94782e-05 2.01572e-08 -7.37612e-12 -917.935 0.68301
;
oxidant         1       28.8503
    200 6000    1000
    3.10134 0.00124139 -4.18821e-07 6.64165e-11 -3.91278e-15 -985.276 5.35602
    3.58381 -0.000727005 1.67056e-06 -1.09178e-10 -4.31777e-13 -1050.54 3.11241
;
reactants       1       28.5164
    200 6000    1000
    3.09924 0.00123623 -4.15431e-07 6.57819e-11 -3.87267e-15 -983.133 5.27663
    3.56839 -0.000618656 1.40741e-06 1.43001e-10 -5.18187e-13 -1048.89 3.08218
;
burntProducts   1       24.543
    200 6000    1000
    2.85694 0.00194404 -5.90217e-07 8.40966e-11 -4.49004e-15 -10976.9 6.2227
    3.76275 -0.000787587 1.93485e-06 -3.14906e-10 -3.04738e-13 -11198.7 1.64274
;
products        1       28.695
    200 6000    1000
    3.09252 0.00126673 -4.25004e-07 6.70543e-11 -3.9336e-15 -1345.7 5.38728
    3.59027 -0.000729191 1.6801e-06 -1.16599e-10 -4.27194e-13 -1416.61 3.0594
;
Tad = 403.142

phi = 0.04
ft = 0.00117254
fuel fuel       1       2.01594
    200 6000    1000
    2.93287 0.000826608 -1.46402e-07 1.541e-11 -6.88805e-16 -813.066 -1.02433
    2.34433 0.00798052 -1.94782e-05 2.01572e-08 -7.37612e-12 -917.935 0.68301
;
oxidant         1       28.8503
    200 6000    1000
    3.10134 0.00124139 -4.18821e-07 6.64165e-11 -3.91278e-15 -985.276 5.35602
    3.58381 -0.000727005 1.67056e-06 -1.09178e-10 -4.31777e-13 -1050.54 3.11241
;
reactants       1       28.407
    200 6000    1000
    3.09856 0.00123453 -4.1432e-07 6.55738e-11 -3.85951e-15 -982.43 5.2506
    3.56334 -0.000583136 1.32113e-06 2.25672e-10 -5.46514e-13 -1048.35 3.07227
;
burntProducts   1       24.543
    200 6000    1000
    2.85694 0.00194404 -5.90217e-07 8.40966e-11 -4.49004e-15 -10976.9 6.2227
    3.76275 -0.000787587 1.93485e-06 -3.14906e-10 -3.04738e-13 -11198.7 1.64274
;
products        1       28.6436
    200 6000    1000
    3.08961 0.00127511 -4.27047e-07 6.72651e-11 -3.94049e-15 -1464.84 5.39762
    3.5924 -0.000729913 1.68325e-06 -1.19052e-10 -4.25679e-13 -1537.62 3.04187
;
Tad = 436.888

phi = 0.05
ft = 0.00146524
fuel fuel       1       2.01594
    200 6000    1000
    2.93287 0.000826608 -1.46402e-07 1.541e-11 -6.88805e-16 -813.066 -1.02433
    2.34433 0.00798052 -1.94782e-05 2.01572e-08 -7.37612e-12 -917.935 0.68301
;
oxidant         1       28.8503
    200 6000    1000
    3.10134 0.00124139 -4.18821e-07 6.64165e-11 -3.91278e-15 -985.276 5.35602
    3.58381 -0.000727005 1.67056e-06 -1.09178e-10 -4.31777e-13 -1050.54 3.11241
;
reactants       1       28.2984
    200 6000    1000
    3.09787 0.00123286 -4.13218e-07 6.53674e-11 -3.84647e-15 -981.733 5.22479
    3.55832 -0.000547908 1.23557e-06 3.07662e-10 -5.74608e-13 -1047.81 3.06245
;
burntProducts   1       24.543
    200 6000    1000
    2.85694 0.00194404 -5.90217e-07 8.40966e-11 -4.49004e-15 -10976.9 6.2227
    3.76275 -0.000787587 1.93485e-06 -3.14906e-10 -3.04738e-13 -11198.7 1.64274
;
products        1       28.5924
    200 6000    1000
    3.08671 0.00128346 -4.29082e-07 6.74751e-11 -3.94734e-15 -1583.49 5.40791
    3.59453 -0.000730633 1.68639e-06 -1.21495e-10 -4.24171e-13 -1658.13 3.02442
;
Tad = 470.284

phi = 0.06
ft = 0.00175777
fuel fuel       1       2.01594
    200 6000    1000
    2.93287 0.000826608 -1.46402e-07 1.541e-11 -6.88805e-16 -813.066 -1.02433
    2.34433 0.00798052 -1.94782e-05 2.01572e-08 -7.37612e-12 -917.935 0.68301
;
oxidant         1       28.8503
    200 6000    1000
    3.10134 0.00124139 -4.18821e-07 6.64165e-11 -3.91278e-15 -985.276 5.35602
    3.58381 -0.000727005 1.67056e-06 -1.09178e-10 -4.31777e-13 -1050.54 3.11241
;
reactants       1       28.1907
    200 6000    1000
    3.0972 0.00123119 -4.12125e-07 6.51628e-11 -3.83353e-15 -981.043 5.19919
    3.55335 -0.00051297 1.15072e-06 3.88981e-10 -6.02473e-13 -1047.28 3.0527
;
burntProducts   1       24.543
    200 6000    1000
    2.85694 0.00194404 -5.90217e-07 8.40966e-11 -4.49004e-15 -10976.9 6.2227
    3.76275 -0.000787587 1.93485e-06 -3.14906e-10 -3.04738e-13 -11198.7 1.64274
;
products        1       28.5415
    200 6000    1000
    3.08382 0.00129177 -4.31109e-07 6.76841e-11 -3.95417e-15 -1701.64 5.41816
    3.59664 -0.000731349 1.68951e-06 -1.23928e-10 -4.22668e-13 -1778.13 3.00704
;
Tad = 503.317

phi = 0.07
ft = 0.00205014
fuel fuel       1       2.01594
    200 6000    1000
    2.93287 0.000826608 -1.46402e-07 1.541e-11 -6.88805e-16 -813.066 -1.02433
    2.34433 0.00798052 -1.94782e-05 2.01572e-08 -7.37612e-12 -917.935 0.68301
;
oxidant         1       28.8503
    200 6000    1000
    3.10134 0.00124139 -4.18821e-07 6.64165e-11 -3.91278e-15 -985.276 5.35602
    3.58381 -0.000727005 1.67056e-06 -1.09178e-10 -4.31777e-13 -1050.54 3.11241
;
reactants       1       28.0839
    200 6000    1000
    3.09653 0.00122954 -4.1104e-07 6.49598e-11 -3.8207e-15 -980.357 5.17379
    3.54841 -0.000478316 1.06655e-06 4.69636e-10 -6.30109e-13 -1046.75 3.04303
;
burntProducts   1       24.543
    200 6000    1000
    2.85694 0.00194404 -5.90217e-07 8.40966e-11 -4.49004e-15 -10976.9 6.2227
    3.76275 -0.000787587 1.93485e-06 -3.14906e-10 -3.04738e-13 -11198.7 1.64274
;
products        1       28.4908
    200 6000    1000
    3.08094 0.00130004 -4.33128e-07 6.78924e-11 -3.96097e-15 -1819.3 5.42836
    3.59875 -0.000732062 1.69262e-06 -1.26351e-10 -4.21172e-13 -1897.64 2.98974
;
Tad = 535.974

phi = 0.08
ft = 0.00234233
fuel fuel       1       2.01594
    200 6000    1000
    2.93287 0.000826608 -1.46402e-07 1.541e-11 -6.88805e-16 -813.066 -1.02433
    2.34433 0.00798052 -1.94782e-05 2.01572e-08 -7.37612e-12 -917.935 0.68301
;
oxidant         1       28.8503
    200 6000    1000
    3.10134 0.00124139 -4.18821e-07 6.64165e-11 -3.91278e-15 -985.276 5.35602
    3.58381 -0.000727005 1.67056e-06 -1.09178e-10 -4.31777e-13 -1050.54 3.11241
;
reactants       1       27.978
    200 6000    1000
    3.09586 0.0012279 -4.09965e-07 6.47584e-11 -3.80798e-15 -979.677 5.14861
    3.54352 -0.000443944 9.83065e-07 5.49636e-10 -6.57522e-13 -1046.23 3.03344
;
burntProducts   1       24.543
    200 6000    1000
    2.85694 0.00194404 -5.90217e-07 8.40966e-11 -4.49004e-15 -10976.9 6.2227
    3.76275 -0.000787587 1.93485e-06 -3.14906e-10 -3.04738e-13 -11198.7 1.64274
;
products        1       28.4403
    200 6000    1000
    3.07807 0.00130828 -4.35138e-07 6.80997e-11 -3.96774e-15 -1936.48 5.43853
    3.60085 -0.000732773 1.69572e-06 -1.28763e-10 -4.19682e-13 -2016.66 2.9725
;
Tad = 568.248

phi = 0.09
ft = 0.00263435
fuel fuel       1       2.01594
    200 6000    1000
    2.93287 0.000826608 -1.46402e-07 1.541e-11 -6.88805e-16 -813.066 -1.02433
    2.34433 0.00798052 -1.94782e-05 2.01572e-08 -7.37612e-12 -917.935 0.68301
;
oxidant         1       28.8503
    200 6000    1000
    3.10134 0.00124139 -4.18821e-07 6.64165e-11 -3.91278e-15 -985.276 5.35602
    3.58381 -0.000727005 1.67056e-06 -1.09178e-10 -4.31777e-13 -1050.54 3.11241
;
reactants       1       27.8729
    200 6000    1000
    3.0952 0.00122628 -4.08898e-07 6.45587e-11 -3.79535e-15 -979.003 5.12363
    3.53867 -0.00040985 9.00258e-07 6.28988e-10 -6.84712e-13 -1045.71 3.02393
;
burntProducts   1       24.543
    200 6000    1000
    2.85694 0.00194404 -5.90217e-07 8.40966e-11 -4.49004e-15 -10976.9 6.2227
    3.76275 -0.000787587 1.93485e-06 -3.14906e-10 -3.04738e-13 -11198.7 1.64274
;
products        1       28.39
    200 6000    1000
    3.07522 0.00131649 -4.3714e-07 6.83062e-11 -3.97448e-15 -2053.18 5.44865
    3.60294 -0.00073348 1.69881e-06 -1.31166e-10 -4.18199e-13 -2135.18 2.95534
;
Tad = 600.133

phi = 0.1
ft = 0.0029262
fuel fuel       1       2.01594
    200 6000    1000
    2.93287 0.000826608 -1.46402e-07 1.541e-11 -6.88805e-16 -813.066 -1.02433
    2.34433 0.00798052 -1.94782e-05 2.01572e-08 -7.37612e-12 -917.935 0.68301
;
oxidant         1       28.8503
    200 6000    1000
    3.10134 0.00124139 -4.18821e-07 6.64165e-11 -3.91278e-15 -985.276 5.35602
    3.58381 -0.000727005 1.67056e-06 -1.09178e-10 -4.31777e-13 -1050.54 3.11241
;
reactants       1       27.7687
    200 6000    1000
    3.09455 0.00122467 -4.0784e-07 6.43606e-11 -3.78283e-15 -978.334 5.09885
    3.53385 -0.00037603 8.18118e-07 7.07701e-10 -7.11683e-13 -1045.2 3.01449
;
burntProducts   1       24.543
    200 6000    1000
    2.85694 0.00194404 -5.90217e-07 8.40966e-11 -4.49004e-15 -10976.9 6.2227
    3.76275 -0.000787587 1.93485e-06 -3.14906e-10 -3.04738e-13 -11198.7 1.64274
;
products        1       28.3399
    200 6000    1000
    3.07238 0.00132466 -4.39133e-07 6.85118e-11 -3.98119e-15 -2169.39 5.45873
    3.60502 -0.000734185 1.70189e-06 -1.33559e-10 -4.16721e-13 -2253.22 2.93824
;
Tad = 631.628

phi = 0.11
ft = 0.00321787
fuel fuel       1       2.01594
    200 6000    1000
    2.93287 0.000826608 -1.46402e-07 1.541e-11 -6.88805e-16 -813.066 -1.02433
    2.34433 0.00798052 -1.94782e-05 2.01572e-08 -7.37612e-12 -917.935 0.68301
;
oxidant         1       28.8503
    200 6000    1000
    3.10134 0.00124139 -4.18821e-07 6.64165e-11 -3.91278e-15 -985.276 5.35602
    3.58381 -0.000727005 1.67056e-06 -1.09178e-10 -4.31777e-13 -1050.54 3.11241
;
reactants       1       27.6653
    200 6000    1000
    3.0939 0.00122307 -4.06791e-07 6.41641e-11 -3.77041e-15 -977.671 5.07426
    3.52908 -0.000342483 7.36638e-07 7.85781e-10 -7.38438e-13 -1044.69 3.00513
;
burntProducts   1       24.543
    200 6000    1000
    2.85694 0.00194404 -5.90217e-07 8.40966e-11 -4.49004e-15 -10976.9 6.2227
    3.76275 -0.000787587 1.93485e-06 -3.14906e-10 -3.04738e-13 -11198.7 1.64274
;
products        1       28.29
    200 6000    1000
    3.06954 0.0013328 -4.41119e-07 6.87166e-11 -3.98788e-15 -2285.13 5.46877
    3.60709 -0.000734887 1.70495e-06 -1.35942e-10 -4.15249e-13 -2370.77 2.92122
;
Tad = 662.732

phi = 0.12
ft = 0.00350938
fuel fuel       1       2.01594
    200 6000    1000
    2.93287 0.000826608 -1.46402e-07 1.541e-11 -6.88805e-16 -813.066 -1.02433
    2.34433 0.00798052 -1.94782e-05 2.01572e-08 -7.37612e-12 -917.935 0.68301
;
oxidant         1       28.8503
    200 6000    1000
    3.10134 0.00124139 -4.18821e-07 6.64165e-11 -3.91278e-15 -985.276 5.35602
    3.58381 -0.000727005 1.67056e-06 -1.09178e-10 -4.31777e-13 -1050.54 3.11241
;
reactants       1       27.5628
    200 6000    1000
    3.09326 0.00122149 -4.0575e-07 6.39692e-11 -3.75809e-15 -977.013 5.04988
    3.52434 -0.000309203 6.5581e-07 8.63238e-10 -7.64978e-13 -1044.18 2.99585
;
burntProducts   1       24.543
    200 6000    1000
    2.85694 0.00194404 -5.90217e-07 8.40966e-11 -4.49004e-15 -10976.9 6.2227
    3.76275 -0.000787587 1.93485e-06 -3.14906e-10 -3.04738e-13 -11198.7 1.64274
;
products        1       28.2403
    200 6000    1000
    3.06672 0.0013409 -4.43096e-07 6.89206e-11 -3.99454e-15 -2400.39 5.47877
    3.60916 -0.000735586 1.708e-06 -1.38315e-10 -4.13784e-13 -2487.84 2.90426
;
Tad = 693.449

phi = 0.13
ft = 0.00380072
fuel fuel       1       2.01594
    200 6000    1000
    2.93287 0.000826608 -1.46402e-07 1.541e-11 -6.88805e-16 -813.066 -1.02433
    2.34433 0.00798052 -1.94782e-05 2.01572e-08 -7.37612e-12 -917.935 0.68301
;
oxidant         1       28.8503
    200 6000    1000
    3.10134 0.00124139 -4.18821e-07 6.64165e-11 -3.91278e-15 -985.276 5.35602
    3.58381 -0.000727005 1.67056e-06 -1.09178e-10 -4.31777e-13 -1050.54 3.11241
;
reactants       1       27.461
    200 6000    1000
    3.09262 0.00121991 -4.04717e-07 6.37758e-11 -3.74587e-15 -976.36 5.02569
    3.51964 -0.000276189 5.75625e-07 9.40077e-10 -7.91307e-13 -1043.68 2.98664
;
burntProducts   1       24.543
    200 6000    1000
    2.85694 0.00194404 -5.90217e-07 8.40966e-11 -4.49004e-15 -10976.9 6.2227
    3.76275 -0.000787587 1.93485e-06 -3.14906e-10 -3.04738e-13 -11198.7 1.64274
;
products        1       28.1908
    200 6000    1000
    3.06392 0.00134898 -4.45065e-07 6.91237e-11 -4.00117e-15 -2515.18 5.48872
    3.61121 -0.000736282 1.71103e-06 -1.40679e-10 -4.12324e-13 -2604.43 2.88738
;
Tad = 723.78

phi = 0.14
ft = 0.00409188
fuel fuel       1       2.01594
    200 6000    1000
    2.93287 0.000826608 -1.46402e-07 1.541e-11 -6.88805e-16 -813.066 -1.02433
    2.34433 0.00798052 -1.94782e-05 2.01572e-08 -7.37612e-12 -917.935 0.68301
;
oxidant         1       28.8503
    200 6000    1000
    3.10134 0.00124139 -4.18821e-07 6.64165e-11 -3.91278e-15 -985.276 5.35602
    3.58381 -0.000727005 1.67056e-06 -1.09178e-10 -4.31777e-13 -1050.54 3.11241
;
reactants       1       27.3601
    200 6000    1000
    3.09198 0.00121835 -4.03692e-07 6.35839e-11 -3.73374e-15 -975.712 5.00169
    3.51498 -0.000243437 4.96076e-07 1.01631e-09 -8.17428e-13 -1043.18 2.9775
;
burntProducts   1       24.543
    200 6000    1000
    2.85694 0.00194404 -5.90217e-07 8.40966e-11 -4.49004e-15 -10976.9 6.2227
    3.76275 -0.000787587 1.93485e-06 -3.14906e-10 -3.04738e-13 -11198.7 1.64274
;
products        1       28.1415
    200 6000    1000
    3.06112 0.00135702 -4.47026e-07 6.9326e-11 -4.00778e-15 -2629.51 5.49864
    3.61326 -0.000736975 1.71406e-06 -1.43033e-10 -4.10871e-13 -2720.55 2.87056
;
Tad = 753.734

phi = 0.15
ft = 0.00438288
fuel fuel       1       2.01594
    200 6000    1000
    2.93287 0.000826608 -1.46402e-07 1.541e-11 -6.88805e-16 -813.066 -1.02433
    2.34433 0.00798052 -1.94782e-05 2.01572e-08 -7.37612e-12 -917.935 0.68301
;
oxidant         1       28.8503
    200 6000    1000
    3.10134 0.00124139 -4.18821e-07 6.64165e-11 -3.91278e-15 -985.276 5.35602
    3.58381 -0.000727005 1.67056e-06 -1.09178e-10 -4.31777e-13 -1050.54 3.11241
;
reactants       1       27.26
    200 6000    1000
    3.09136 0.00121681 -4.02676e-07 6.33936e-11 -3.72171e-15 -975.069 4.97788
    3.51035 -0.000210943 4.17156e-07 1.09193e-09 -8.43342e-13 -1042.68 2.96843
;
burntProducts   1       24.543
    200 6000    1000
    2.85694 0.00194404 -5.90217e-07 8.40966e-11 -4.49004e-15 -10976.9 6.2227
    3.76275 -0.000787587 1.93485e-06 -3.14906e-10 -3.04738e-13 -11198.7 1.64274
;
products        1       28.0924
    200 6000    1000
    3.05834 0.00136502 -4.48979e-07 6.95275e-11 -4.01435e-15 -2743.37 5.50852
    3.6153 -0.000737665 1.71707e-06 -1.45377e-10 -4.09423e-13 -2836.19 2.85381
;
Tad = 783.317

phi = 0.16
ft = 0.00467371
fuel fuel       1       2.01594
    200 6000    1000
    2.93287 0.000826608 -1.46402e-07 1.541e-11 -6.88805e-16 -813.066 -1.02433
    2.34433 0.00798052 -1.94782e-05 2.01572e-08 -7.37612e-12 -917.935 0.68301
;
oxidant         1       28.8503
    200 6000    1000
    3.10134 0.00124139 -4.18821e-07 6.64165e-11 -3.91278e-15 -985.276 5.35602
    3.58381 -0.000727005 1.67056e-06 -1.09178e-10 -4.31777e-13 -1050.54 3.11241
;
reactants       1       27.1606
    200 6000    1000
    3.09073 0.00121527 -4.01667e-07 6.32047e-11 -3.70977e-15 -974.432 4.95426
    3.50577 -0.000178706 3.38858e-07 1.16697e-09 -8.69052e-13 -1042.19 2.95944
;
burntProducts   1       24.543
    200 6000    1000
    2.85694 0.00194404 -5.90217e-07 8.40966e-11 -4.49004e-15 -10976.9 6.2227
    3.76275 -0.000787587 1.93485e-06 -3.14906e-10 -3.04738e-13 -11198.7 1.64274
;
products        1       28.0435
    200 6000    1000
    3.05556 0.001373 -4.50924e-07 6.97281e-11 -4.02091e-15 -2856.76 5.51835
    3.61733 -0.000738353 1.72007e-06 -1.47712e-10 -4.07981e-13 -2951.36 2.83713
;
Tad = 812.538

phi = 0.17
ft = 0.00496436
fuel fuel       1       2.01594
    200 6000    1000
    2.93287 0.000826608 -1.46402e-07 1.541e-11 -6.88805e-16 -813.066 -1.02433
    2.34433 0.00798052 -1.94782e-05 2.01572e-08 -7.37612e-12 -917.935 0.68301
;
oxidant         1       28.8503
    200 6000    1000
    3.10134 0.00124139 -4.18821e-07 6.64165e-11 -3.91278e-15 -985.276 5.35602
    3.58381 -0.000727005 1.67056e-06 -1.09178e-10 -4.31777e-13 -1050.54 3.11241
;
reactants       1       27.062
    200 6000    1000
    3.09011 0.00121375 -4.00666e-07 6.30174e-11 -3.69793e-15 -973.799 4.93082
    3.50121 -0.000146721 2.61173e-07 1.24141e-09 -8.9456e-13 -1041.7 2.95051
;
burntProducts   1       24.543
    200 6000    1000
    2.85694 0.00194404 -5.90217e-07 8.40966e-11 -4.49004e-15 -10976.9 6.2227
    3.76275 -0.000787587 1.93485e-06 -3.14906e-10 -3.04738e-13 -11198.7 1.64274
;
products        1       27.9949
    200 6000    1000
    3.0528 0.00138094 -4.52862e-07 6.9928e-11 -4.02743e-15 -2969.7 5.52815
    3.61935 -0.000739038 1.72305e-06 -1.50038e-10 -4.06545e-13 -3066.07 2.82052
;
Tad = 841.406

phi = 0.18
ft = 0.00525485
fuel fuel       1       2.01594
    200 6000    1000
    2.93287 0.000826608 -1.46402e-07 1.541e-11 -6.88805e-16 -813.066 -1.02433
    2.34433 0.00798052 -1.94782e-05 2.01572e-08 -7.37612e-12 -917.935 0.68301
;
oxidant         1       28.8503
    200 6000    1000
    3.10134 0.00124139 -4.18821e-07 6.64165e-11 -3.91278e-15 -985.276 5.35602
    3.58381 -0.000727005 1.67056e-06 -1.09178e-10 -4.31777e-13 -1050.54 3.11241
;
reactants       1       26.9642
    200 6000    1000
    3.0895 0.00121223 -3.99673e-07 6.28315e-11 -3.68618e-15 -973.172 4.90757
    3.4967 -0.000114985 1.84094e-07 1.31527e-09 -9.19869e-13 -1041.22 2.94166
;
burntProducts   1       24.543
    200 6000    1000
    2.85694 0.00194404 -5.90217e-07 8.40966e-11 -4.49004e-15 -10976.9 6.2227
    3.76275 -0.000787587 1.93485e-06 -3.14906e-10 -3.04738e-13 -11198.7 1.64274
;
products        1       27.9464
    200 6000    1000
    3.05005 0.00138885 -4.54791e-07 7.0127e-11 -4.03393e-15 -3082.18 5.53791
    3.62137 -0.00073972 1.72603e-06 -1.52354e-10 -4.05115e-13 -3180.31 2.80398
;
Tad = 869.932

phi = 0.19
ft = 0.00554517
fuel fuel       1       2.01594
    200 6000    1000
    2.93287 0.000826608 -1.46402e-07 1.541e-11 -6.88805e-16 -813.066 -1.02433
    2.34433 0.00798052 -1.94782e-05 2.01572e-08 -7.37612e-12 -917.935 0.68301
;
oxidant         1       28.8503
    200 6000    1000
    3.10134 0.00124139 -4.18821e-07 6.64165e-11 -3.91278e-15 -985.276 5.35602
    3.58381 -0.000727005 1.67056e-06 -1.09178e-10 -4.31777e-13 -1050.54 3.11241
;
reactants       1       26.8672
    200 6000    1000
    3.08889 0.00121073 -3.98688e-07 6.2647e-11 -3.67452e-15 -972.549 4.88449
    3.49221 -8.34969e-05 1.07616e-07 1.38856e-09 -9.44981e-13 -1040.74 2.93287
;
burntProducts   1       24.543
    200 6000    1000
    2.85694 0.00194404 -5.90217e-07 8.40966e-11 -4.49004e-15 -10976.9 6.2227
    3.76275 -0.000787587 1.93485e-06 -3.14906e-10 -3.04738e-13 -11198.7 1.64274
;
products        1       27.8981
    200 6000    1000
    3.04731 0.00139673 -4.56713e-07 7.03252e-11 -4.0404e-15 -3194.2 5.54762
    3.62337 -0.000740399 1.72899e-06 -1.5466e-10 -4.03691e-13 -3294.09 2.7875
;
Tad = 898.128

phi = 0.2
ft = 0.00583532
fuel fuel       1       2.01594
    200 6000    1000
    2.93287 0.000826608 -1.46402e-07 1.541e-11 -6.88805e-16 -813.066 -1.02433
    2.34433 0.00798052 -1.94782e-05 2.01572e-08 -7.37612e-12 -917.935 0.68301
;
oxidant         1       28.8503
    200 6000    1000
    3.10134 0.00124139 -4.18821e-07 6.64165e-11 -3.91278e-15 -985.276 5.35602
    3.58381 -0.000727005 1.67056e-06 -1.09178e-10 -4.31777e-13 -1050.54 3.11241
;
reactants       1       26.7709
    200 6000    1000
    3.08828 0.00120925 -3.97711e-07 6.2464e-11 -3.66295e-15 -971.931 4.8616
    3.48777 -5.22526e-05 3.17297e-08 1.46128e-09 -9.69899e-13 -1040.27 2.92416
;
burntProducts   1       24.543
    200 6000    1000
    2.85694 0.00194404 -5.90217e-07 8.40966e-11 -4.49004e-15 -10976.9 6.2227
    3.76275 -0.000787587 1.93485e-06 -3.14906e-10 -3.04738e-13 -11198.7 1.64274
;
products        1       27.85
    200 6000    1000
    3.04458 0.00140458 -4.58627e-07 7.05227e-11 -4.04685e-15 -3305.78 5.5573
    3.62537 -0.000741075 1.73194e-06 -1.56957e-10 -4.02272e-13 -3407.42 2.77109
;
Tad = 926.006

phi = 0.21
ft = 0.00612529
fuel fuel       1       2.01594
    200 6000    1000
    2.93287 0.000826608 -1.46402e-07 1.541e-11 -6.88805e-16 -813.066 -1.02433
    2.34433 0.00798052 -1.94782e-05 2.01572e-08 -7.37612e-12 -917.935 0.68301
;
oxidant         1       28.8503
    200 6000    1000
    3.10134 0.00124139 -4.18821e-07 6.64165e-11 -3.91278e-15 -985.276 5.35602
    3.58381 -0.000727005 1.67056e-06 -1.09178e-10 -4.31777e-13 -1050.54 3.11241
;
reactants       1       26.6754
    200 6000    1000
    3.08769 0.00120777 -3.96741e-07 6.22824e-11 -3.65147e-15 -971.318 4.83888
    3.48335 -2.12494e-05 -4.35705e-08 1.53344e-09 -9.94625e-13 -1039.79 2.91551
;
burntProducts   1       24.543
    200 6000    1000
    2.85694 0.00194404 -5.90217e-07 8.40966e-11 -4.49004e-15 -10976.9 6.2227
    3.76275 -0.000787587 1.93485e-06 -3.14906e-10 -3.04738e-13 -11198.7 1.64274
;
products        1       27.8021
    200 6000    1000
    3.04186 0.00141239 -4.60533e-07 7.07193e-11 -4.05327e-15 -3416.9 5.56694
    3.62736 -0.000741749 1.73488e-06 -1.59245e-10 -4.00859e-13 -3520.28 2.75474
;
Tad = 953.578

phi = 0.22
ft = 0.0064151
fuel fuel       1       2.01594
    200 6000    1000
    2.93287 0.000826608 -1.46402e-07 1.541e-11 -6.88805e-16 -813.066 -1.02433
    2.34433 0.00798052 -1.94782e-05 2.01572e-08 -7.37612e-12 -917.935 0.68301
;
oxidant         1       28.8503
    200 6000    1000
    3.10134 0.00124139 -4.18821e-07 6.64165e-11 -3.91278e-15 -985.276 5.35602
    3.58381 -0.000727005 1.67056e-06 -1.09178e-10 -4.31777e-13 -1050.54 3.11241
;
reactants       1       26.5806
    200 6000    1000
    3.08709 0.0012063 -3.95778e-07 6.21022e-11 -3.64008e-15 -970.709 4.81634
    3.47897 9.51534e-06 -1.18292e-07 1.60504e-09 -1.01916e-12 -1039.33 2.90692
;
burntProducts   1       24.543
    200 6000    1000
    2.85694 0.00194404 -5.90217e-07 8.40966e-11 -4.49004e-15 -10976.9 6.2227
    3.76275 -0.000787587 1.93485e-06 -3.14906e-10 -3.04738e-13 -11198.7 1.64274
;
products        1       27.7544
    200 6000    1000
    3.03915 0.00142017 -4.62432e-07 7.09151e-11 -4.05966e-15 -3527.58 5.57654
    3.62934 -0.00074242 1.73781e-06 -1.61524e-10 -3.99452e-13 -3632.69 2.73846
;
Tad = 980.858

phi = 0.23
ft = 0.00670474
fuel fuel       1       2.01594
    200 6000    1000
    2.93287 0.000826608 -1.46402e-07 1.541e-11 -6.88805e-16 -813.066 -1.02433
    2.34433 0.00798052 -1.94782e-05 2.01572e-08 -7.37612e-12 -917.935 0.68301
;
oxidant         1       28.8503
    200 6000    1000
    3.10134 0.00124139 -4.18821e-07 6.64165e-11 -3.91278e-15 -985.276 5.35602
    3.58381 -0.000727005 1.67056e-06 -1.09178e-10 -4.31777e-13 -1050.54 3.11241
;
reactants       1       26.4865
    200 6000    1000
    3.0865 0.00120485 -3.94823e-07 6.19234e-11 -3.62878e-15 -970.105 4.79397
    3.47463 4.00444e-05 -1.92441e-07 1.6761e-09 -1.04351e-12 -1038.86 2.89841
;
burntProducts   1       24.543
    200 6000    1000
    2.85694 0.00194404 -5.90217e-07 8.40966e-11 -4.49004e-15 -10976.9 6.2227
    3.76275 -0.000787587 1.93485e-06 -3.14906e-10 -3.04738e-13 -11198.7 1.64274
;
products        1       27.7068
    200 6000    1000
    3.03646 0.00142793 -4.64323e-07 7.11102e-11 -4.06603e-15 -3637.82 5.5861
    3.63132 -0.000743088 1.74073e-06 -1.63794e-10 -3.98051e-13 -3744.66 2.72225
;
Tad = 1007.86

phi = 0.24
ft = 0.00699422
fuel fuel       1       2.01594
    200 6000    1000
    2.93287 0.000826608 -1.46402e-07 1.541e-11 -6.88805e-16 -813.066 -1.02433
    2.34433 0.00798052 -1.94782e-05 2.01572e-08 -7.37612e-12 -917.935 0.68301
;
oxidant         1       28.8503
    200 6000    1000
    3.10134 0.00124139 -4.18821e-07 6.64165e-11 -3.91278e-15 -985.276 5.35602
    3.58381 -0.000727005 1.67056e-06 -1.09178e-10 -4.31777e-13 -1050.54 3.11241
;
reactants       1       26.3931
    200 6000    1000
    3.08591 0.00120341 -3.93875e-07 6.17459e-11 -3.61756e-15 -969.506 4.77177
    3.47032 7.03406e-05 -2.66024e-07 1.74661e-09 -1.06767e-12 -1038.4 2.88995
;
burntProducts   1       24.543
    200 6000    1000
    2.85694 0.00194404 -5.90217e-07 8.40966e-11 -4.49004e-15 -10976.9 6.2227
    3.76275 -0.000787587 1.93485e-06 -3.14906e-10 -3.04738e-13 -11198.7 1.64274
;
products        1       27.6595
    200 6000    1000
    3.03377 0.00143565 -4.66206e-07 7.13045e-11 -4.07237e-15 -3747.61 5.59563
    3.63328 -0.000743754 1.74363e-06 -1.66055e-10 -3.96655e-13 -3856.17 2.7061
;
Tad = 1034.59

phi = 0.25
ft = 0.00728352
fuel fuel       1       2.01594
    200 6000    1000
    2.93287 0.000826608 -1.46402e-07 1.541e-11 -6.88805e-16 -813.066 -1.02433
    2.34433 0.00798052 -1.94782e-05 2.01572e-08 -7.37612e-12 -917.935 0.68301
;
oxidant         1       28.8503
    200 6000    1000
    3.10134 0.00124139 -4.18821e-07 6.64165e-11 -3.91278e-15 -985.276 5.35602
    3.58381 -0.000727005 1.67056e-06 -1.09178e-10 -4.31777e-13 -1050.54 3.11241
;
reactants       1       26.3005
    200 6000    1000
    3.08533 0.00120197 -3.92935e-07 6.15698e-11 -3.60643e-15 -968.912 4.74974
    3.46604 0.000100406 -3.39047e-07 1.81659e-09 -1.09165e-12 -1037.94 2.88157
;
burntProducts   1       24.543
    200 6000    1000
    2.85694 0.00194404 -5.90217e-07 8.40966e-11 -4.49004e-15 -10976.9 6.2227
    3.76275 -0.000787587 1.93485e-06 -3.14906e-10 -3.04738e-13 -11198.7 1.64274
;
products        1       27.6124
    200 6000    1000
    3.0311 0.00144334 -4.68082e-07 7.1498e-11 -4.07869e-15 -3856.97 5.60511
    3.63524 -0.000744417 1.74652e-06 -1.68306e-10 -3.95264e-13 -3967.24 2.69001
;
Tad = 1061.05

phi = 0.26
ft = 0.00757265
fuel fuel       1       2.01594
    200 6000    1000
    2.93287 0.000826608 -1.46402e-07 1.541e-11 -6.88805e-16 -813.066 -1.02433
    2.34433 0.00798052 -1.94782e-05 2.01572e-08 -7.37612e-12 -917.935 0.68301
;
oxidant         1       28.8503
    200 6000    1000
    3.10134 0.00124139 -4.18821e-07 6.64165e-11 -3.91278e-15 -985.276 5.35602
    3.58381 -0.000727005 1.67056e-06 -1.09178e-10 -4.31777e-13 -1050.54 3.11241
;
reactants       1       26.2085
    200 6000    1000
    3.08475 0.00120055 -3.92001e-07 6.1395e-11 -3.59538e-15 -968.322 4.72788
    3.46179 0.000130245 -4.11518e-07 1.88603e-09 -1.11544e-12 -1037.49 2.87324
;
burntProducts   1       24.543
    200 6000    1000
    2.85694 0.00194404 -5.90217e-07 8.40966e-11 -4.49004e-15 -10976.9 6.2227
    3.76275 -0.000787587 1.93485e-06 -3.14906e-10 -3.04738e-13 -11198.7 1.64274
;
products        1       27.5654
    200 6000    1000
    3.02843 0.001451 -4.6995e-07 7.16907e-11 -4.08498e-15 -3965.89 5.61456
    3.63719 -0.000745078 1.7494e-06 -1.70549e-10 -3.93879e-13 -4077.87 2.67399
;
Tad = 1087.24

phi = 0.27
ft = 0.00786162
fuel fuel       1       2.01594
    200 6000    1000
    2.93287 0.000826608 -1.46402e-07 1.541e-11 -6.88805e-16 -813.066 -1.02433
    2.34433 0.00798052 -1.94782e-05 2.01572e-08 -7.37612e-12 -917.935 0.68301
;
oxidant         1       28.8503
    200 6000    1000
    3.10134 0.00124139 -4.18821e-07 6.64165e-11 -3.91278e-15 -985.276 5.35602
    3.58381 -0.000727005 1.67056e-06 -1.09178e-10 -4.31777e-13 -1050.54 3.11241
;
reactants       1       26.1172
    200 6000    1000
    3.08418 0.00119914 -3.91075e-07 6.12215e-11 -3.58442e-15 -967.736 4.70618
    3.45757 0.000159858 -4.83442e-07 1.95496e-09 -1.13906e-12 -1037.04 2.86498
;
burntProducts   1       24.543
    200 6000    1000
    2.85694 0.00194404 -5.90217e-07 8.40966e-11 -4.49004e-15 -10976.9 6.2227
    3.76275 -0.000787587 1.93485e-06 -3.14906e-10 -3.04738e-13 -11198.7 1.64274
;
products        1       27.5186
    200 6000    1000
    3.02578 0.00145863 -4.71811e-07 7.18827e-11 -4.09125e-15 -4074.37 5.62397
    3.63914 -0.000745735 1.75227e-06 -1.72783e-10 -3.925e-13 -4188.06 2.65804
;
Tad = 1113.17

phi = 0.28
ft = 0.00815042
fuel fuel       1       2.01594
    200 6000    1000
    2.93287 0.000826608 -1.46402e-07 1.541e-11 -6.88805e-16 -813.066 -1.02433
    2.34433 0.00798052 -1.94782e-05 2.01572e-08 -7.37612e-12 -917.935 0.68301
;
oxidant         1       28.8503
    200 6000    1000
    3.10134 0.00124139 -4.18821e-07 6.64165e-11 -3.91278e-15 -985.276 5.35602
    3.58381 -0.000727005 1.67056e-06 -1.09178e-10 -4.31777e-13 -1050.54 3.11241
;
reactants       1       26.0267
    200 6000    1000
    3.08361 0.00119774 -3.90155e-07 6.10494e-11 -3.57354e-15 -967.155 4.68464
    3.45339 0.000189248 -5.54825e-07 2.02336e-09 -1.1625e-12 -1036.59 2.85678
;
burntProducts   1       24.543
    200 6000    1000
    2.85694 0.00194404 -5.90217e-07 8.40966e-11 -4.49004e-15 -10976.9 6.2227
    3.76275 -0.000787587 1.93485e-06 -3.14906e-10 -3.04738e-13 -11198.7 1.64274
;
products        1       27.472
    200 6000    1000
    3.02313 0.00146623 -4.73665e-07 7.20739e-11 -4.09749e-15 -4182.43 5.63334
    3.64107 -0.000746391 1.75513e-06 -1.75008e-10 -3.91126e-13 -4297.81 2.64214
;
Tad = 1138.85

phi = 0.29
ft = 0.00843905
fuel fuel       1       2.01594
    200 6000    1000
    2.93287 0.000826608 -1.46402e-07 1.541e-11 -6.88805e-16 -813.066 -1.02433
    2.34433 0.00798052 -1.94782e-05 2.01572e-08 -7.37612e-12 -917.935 0.68301
;
oxidant         1       28.8503
    200 6000    1000
    3.10134 0.00124139 -4.18821e-07 6.64165e-11 -3.91278e-15 -985.276 5.35602
    3.58381 -0.000727005 1.67056e-06 -1.09178e-10 -4.31777e-13 -1050.54 3.11241
;
reactants       1       25.9368
    200 6000    1000
    3.08305 0.00119635 -3.89243e-07 6.08785e-11 -3.56274e-15 -966.578 4.66327
    3.44924 0.000218418 -6.25674e-07 2.09125e-09 -1.18576e-12 -1036.14 2.84864
;
burntProducts   1       24.543
    200 6000    1000
    2.85694 0.00194404 -5.90217e-07 8.40966e-11 -4.49004e-15 -10976.9 6.2227
    3.76275 -0.000787587 1.93485e-06 -3.14906e-10 -3.04738e-13 -11198.7 1.64274
;
products        1       27.4256
    200 6000    1000
    3.0205 0.00147379 -4.75511e-07 7.22643e-11 -4.10371e-15 -4290.06 5.64268
    3.643 -0.000747043 1.75798e-06 -1.77224e-10 -3.89758e-13 -4407.13 2.62631
;
Tad = 1164.29

phi = 0.3
ft = 0.00872751
fuel fuel       1       2.01594
    200 6000    1000
    2.93287 0.000826608 -1.46402e-07 1.541e-11 -6.88805e-16 -813.066 -1.02433
    2.34433 0.00798052 -1.94782e-05 2.01572e-08 -7.37612e-12 -917.935 0.68301
;
oxidant         1       28.8503
    200 6000    1000
    3.10134 0.00124139 -4.18821e-07 6.64165e-11 -3.91278e-15 -985.276 5.35602
    3.58381 -0.000727005 1.67056e-06 -1.09178e-10 -4.31777e-13 -1050.54 3.11241
;
reactants       1       25.8476
    200 6000    1000
    3.08249 0.00119497 -3.88337e-07 6.07089e-11 -3.55202e-15 -966.005 4.64205
    3.44512 0.000247371 -6.95994e-07 2.15864e-09 -1.20885e-12 -1035.7 2.84056
;
burntProducts   1       24.543
    200 6000    1000
    2.85694 0.00194404 -5.90217e-07 8.40966e-11 -4.49004e-15 -10976.9 6.2227
    3.76275 -0.000787587 1.93485e-06 -3.14906e-10 -3.04738e-13 -11198.7 1.64274
;
products        1       27.3794
    200 6000    1000
    3.01788 0.00148133 -4.7735e-07 7.2454e-11 -4.10991e-15 -4397.26 5.65198
    3.64492 -0.000747693 1.76082e-06 -1.79431e-10 -3.88395e-13 -4516.01 2.61054
;
Tad = 1189.47

phi = 0.31
ft = 0.0090158
fuel fuel       1       2.01594
    200 6000    1000
    2.93287 0.000826608 -1.46402e-07 1.541e-11 -6.88805e-16 -813.066 -1.02433
    2.34433 0.00798052 -1.94782e-05 2.01572e-08 -7.37612e-12 -917.935 0.68301
;
oxidant         1       28.8503
    200 6000    1000
    3.10134 0.00124139 -4.18821e-07 6.64165e-11 -3.91278e-15 -985.276 5.35602
    3.58381 -0.000727005 1.67056e-06 -1.09178e-10 -4.31777e-13 -1050.54 3.11241
;
reactants       1       25.759
    200 6000    1000
    3.08193 0.0011936 -3.87438e-07 6.05406e-11 -3.54138e-15 -965.437 4.621
    3.44102 0.000276109 -7.65792e-07 2.22553e-09 -1.23177e-12 -1035.27 2.83254
;
burntProducts   1       24.543
    200 6000    1000
    2.85694 0.00194404 -5.90217e-07 8.40966e-11 -4.49004e-15 -10976.9 6.2227
    3.76275 -0.000787587 1.93485e-06 -3.14906e-10 -3.04738e-13 -11198.7 1.64274
;
products        1       27.3334
    200 6000    1000
    3.01527 0.00148884 -4.79182e-07 7.2643e-11 -4.11608e-15 -4504.05 5.66124
    3.64683 -0.000748341 1.76364e-06 -1.8163e-10 -3.87037e-13 -4624.47 2.59483
;
Tad = 1214.42

phi = 0.32
ft = 0.00930393
fuel fuel       1       2.01594
    200 6000    1000
    2.93287 0.000826608 -1.46402e-07 1.541e-11 -6.88805e-16 -813.066 -1.02433
    2.34433 0.00798052 -1.94782e-05 2.01572e-08 -7.37612e-12 -917.935 0.68301
;
oxidant         1       28.8503
    200 6000    1000
    3.10134 0.00124139 -4.18821e-07 6.64165e-11 -3.91278e-15 -985.276 5.35602
    3.58381 -0.000727005 1.67056e-06 -1.09178e-10 -4.31777e-13 -1050.54 3.11241
;
reactants       1       25.6711
    200 6000    1000
    3.08138 0.00119225 -3.86545e-07 6.03735e-11 -3.53082e-15 -964.873 4.6001
    3.43696 0.000304634 -8.35073e-07 2.29192e-09 -1.25452e-12 -1034.83 2.82459
;
burntProducts   1       24.543
    200 6000    1000
    2.85694 0.00194404 -5.90217e-07 8.40966e-11 -4.49004e-15 -10976.9 6.2227
    3.76275 -0.000787587 1.93485e-06 -3.14906e-10 -3.04738e-13 -11198.7 1.64274
;
products        1       27.2875
    200 6000    1000
    3.01267 0.00149632 -4.81006e-07 7.28312e-11 -4.12222e-15 -4610.41 5.67047
    3.64874 -0.000748986 1.76645e-06 -1.8382e-10 -3.85684e-13 -4732.49 2.57919
;
Tad = 1239.13

phi = 0.33
ft = 0.00959189
fuel fuel       1       2.01594
    200 6000    1000
    2.93287 0.000826608 -1.46402e-07 1.541e-11 -6.88805e-16 -813.066 -1.02433
    2.34433 0.00798052 -1.94782e-05 2.01572e-08 -7.37612e-12 -917.935 0.68301
;
oxidant         1       28.8503
    200 6000    1000
    3.10134 0.00124139 -4.18821e-07 6.64165e-11 -3.91278e-15 -985.276 5.35602
    3.58381 -0.000727005 1.67056e-06 -1.09178e-10 -4.31777e-13 -1050.54 3.11241
;
reactants       1       25.5838
    200 6000    1000
    3.08083 0.0011909 -3.8566e-07 6.02076e-11 -3.52033e-15 -964.313 4.57935
    3.43293 0.000332948 -9.03842e-07 2.35782e-09 -1.2771e-12 -1034.4 2.81669
;
burntProducts   1       24.543
    200 6000    1000
    2.85694 0.00194404 -5.90217e-07 8.40966e-11 -4.49004e-15 -10976.9 6.2227
    3.76275 -0.000787587 1.93485e-06 -3.14906e-10 -3.04738e-13 -11198.7 1.64274
;
products        1       27.2419
    200 6000    1000
    3.01007 0.00150377 -4.82824e-07 7.30187e-11 -4.12834e-15 -4716.35 5.67966
    3.65063 -0.000749628 1.76926e-06 -1.86001e-10 -3.84337e-13 -4840.1 2.56361
;
Tad = 1263.61

phi = 0.34
ft = 0.00987968
fuel fuel       1       2.01594
    200 6000    1000
    2.93287 0.000826608 -1.46402e-07 1.541e-11 -6.88805e-16 -813.066 -1.02433
    2.34433 0.00798052 -1.94782e-05 2.01572e-08 -7.37612e-12 -917.935 0.68301
;
oxidant         1       28.8503
    200 6000    1000
    3.10134 0.00124139 -4.18821e-07 6.64165e-11 -3.91278e-15 -985.276 5.35602
    3.58381 -0.000727005 1.67056e-06 -1.09178e-10 -4.31777e-13 -1050.54 3.11241
;
reactants       1       25.4972
    200 6000    1000
    3.08029 0.00118956 -3.8478e-07 6.0043e-11 -3.50993e-15 -963.757 4.55875
    3.42893 0.000361054 -9.72106e-07 2.42323e-09 -1.29952e-12 -1033.97 2.80884
;
burntProducts   1       24.543
    200 6000    1000
    2.85694 0.00194404 -5.90217e-07 8.40966e-11 -4.49004e-15 -10976.9 6.2227
    3.76275 -0.000787587 1.93485e-06 -3.14906e-10 -3.04738e-13 -11198.7 1.64274
;
products        1       27.1964
    200 6000    1000
    3.00749 0.00151119 -4.84634e-07 7.32054e-11 -4.13444e-15 -4821.88 5.68881
    3.65252 -0.000750268 1.77205e-06 -1.88174e-10 -3.82996e-13 -4947.28 2.54808
;
Tad = 1287.86

phi = 0.35
ft = 0.0101673
fuel fuel       1       2.01594
    200 6000    1000
    2.93287 0.000826608 -1.46402e-07 1.541e-11 -6.88805e-16 -813.066 -1.02433
    2.34433 0.00798052 -1.94782e-05 2.01572e-08 -7.37612e-12 -917.935 0.68301
;
oxidant         1       28.8503
    200 6000    1000
    3.10134 0.00124139 -4.18821e-07 6.64165e-11 -3.91278e-15 -985.276 5.35602
    3.58381 -0.000727005 1.67056e-06 -1.09178e-10 -4.31777e-13 -1050.54 3.11241
;
reactants       1       25.4112
    200 6000    1000
    3.07975 0.00118823 -3.83907e-07 5.98795e-11 -3.4996e-15 -963.205 4.53831
    3.42496 0.000388955 -1.03987e-06 2.48817e-09 -1.32177e-12 -1033.55 2.80106
;
burntProducts   1       24.543
    200 6000    1000
    2.85694 0.00194404 -5.90217e-07 8.40966e-11 -4.49004e-15 -10976.9 6.2227
    3.76275 -0.000787587 1.93485e-06 -3.14906e-10 -3.04738e-13 -11198.7 1.64274
;
products        1       27.1511
    200 6000    1000
    3.00492 0.00151859 -4.86437e-07 7.33914e-11 -4.14051e-15 -4926.99 5.69793
    3.65441 -0.000750905 1.77483e-06 -1.90338e-10 -3.81659e-13 -5054.04 2.53262
;
Tad = 1311.88

phi = 0.36
ft = 0.0104548
fuel fuel       1       2.01594
    200 6000    1000
    2.93287 0.000826608 -1.46402e-07 1.541e-11 -6.88805e-16 -813.066 -1.02433
    2.34433 0.00798052 -1.94782e-05 2.01572e-08 -7.37612e-12 -917.935 0.68301
;
oxidant         1       28.8503
    200 6000    1000
    3.10134 0.00124139 -4.18821e-07 6.64165e-11 -3.91278e-15 -985.276 5.35602
    3.58381 -0.000727005 1.67056e-06 -1.09178e-10 -4.31777e-13 -1050.54 3.11241
;
reactants       1       25.3259
    200 6000    1000
    3.07921 0.00118691 -3.83041e-07 5.97173e-11 -3.48934e-15 -962.657 4.51802
    3.42102 0.000416651 -1.10714e-06 2.55263e-09 -1.34386e-12 -1033.12 2.79333
;
burntProducts   1       24.543
    200 6000    1000
    2.85694 0.00194404 -5.90217e-07 8.40966e-11 -4.49004e-15 -10976.9 6.2227
    3.76275 -0.000787587 1.93485e-06 -3.14906e-10 -3.04738e-13 -11198.7 1.64274
;
products        1       27.1059
    200 6000    1000
    3.00236 0.00152595 -4.88233e-07 7.35767e-11 -4.14656e-15 -5031.7 5.70701
    3.65628 -0.00075154 1.7776e-06 -1.92494e-10 -3.80328e-13 -5160.39 2.51722
;
Tad = 1335.69

phi = 0.37
ft = 0.0107421
fuel fuel       1       2.01594
    200 6000    1000
    2.93287 0.000826608 -1.46402e-07 1.541e-11 -6.88805e-16 -813.066 -1.02433
    2.34433 0.00798052 -1.94782e-05 2.01572e-08 -7.37612e-12 -917.935 0.68301
;
oxidant         1       28.8503
    200 6000    1000
    3.10134 0.00124139 -4.18821e-07 6.64165e-11 -3.91278e-15 -985.276 5.35602
    3.58381 -0.000727005 1.67056e-06 -1.09178e-10 -4.31777e-13 -1050.54 3.11241
;
reactants       1       25.2411
    200 6000    1000
    3.07868 0.0011856 -3.82181e-07 5.95562e-11 -3.47916e-15 -962.114 4.49787
    3.41711 0.000444147 -1.17392e-06 2.61663e-09 -1.36578e-12 -1032.71 2.78566
;
burntProducts   1       24.543
    200 6000    1000
    2.85694 0.00194404 -5.90217e-07 8.40966e-11 -4.49004e-15 -10976.9 6.2227
    3.76275 -0.000787587 1.93485e-06 -3.14906e-10 -3.04738e-13 -11198.7 1.64274
;
products        1       27.061
    200 6000    1000
    2.99981 0.00153328 -4.90022e-07 7.37612e-11 -4.15259e-15 -5136 5.71606
    3.65815 -0.000752172 1.78036e-06 -1.94642e-10 -3.79002e-13 -5266.32 2.50188
;
Tad = 1359.28

phi = 0.38
ft = 0.0110292
fuel fuel       1       2.01594
    200 6000    1000
    2.93287 0.000826608 -1.46402e-07 1.541e-11 -6.88805e-16 -813.066 -1.02433
    2.34433 0.00798052 -1.94782e-05 2.01572e-08 -7.37612e-12 -917.935 0.68301
;
oxidant         1       28.8503
    200 6000    1000
    3.10134 0.00124139 -4.18821e-07 6.64165e-11 -3.91278e-15 -985.276 5.35602
    3.58381 -0.000727005 1.67056e-06 -1.09178e-10 -4.31777e-13 -1050.54 3.11241
;
reactants       1       25.157
    200 6000    1000
    3.07815 0.0011843 -3.81327e-07 5.93963e-11 -3.46905e-15 -961.574 4.47787
    3.41322 0.000471443 -1.24022e-06 2.68016e-09 -1.38755e-12 -1032.29 2.77805
;
burntProducts   1       24.543
    200 6000    1000
    2.85694 0.00194404 -5.90217e-07 8.40966e-11 -4.49004e-15 -10976.9 6.2227
    3.76275 -0.000787587 1.93485e-06 -3.14906e-10 -3.04738e-13 -11198.7 1.64274
;
products        1       27.0162
    200 6000    1000
    2.99727 0.00154059 -4.91805e-07 7.39451e-11 -4.15859e-15 -5239.89 5.72507
    3.66001 -0.000752802 1.7831e-06 -1.96781e-10 -3.77681e-13 -5371.84 2.4866
;
Tad = 1382.66

phi = 0.39
ft = 0.0113161
fuel fuel       1       2.01594
    200 6000    1000
    2.93287 0.000826608 -1.46402e-07 1.541e-11 -6.88805e-16 -813.066 -1.02433
    2.34433 0.00798052 -1.94782e-05 2.01572e-08 -7.37612e-12 -917.935 0.68301
;
oxidant         1       28.8503
    200 6000    1000
    3.10134 0.00124139 -4.18821e-07 6.64165e-11 -3.91278e-15 -985.276 5.35602
    3.58381 -0.000727005 1.67056e-06 -1.09178e-10 -4.31777e-13 -1050.54 3.11241
;
reactants       1       25.0735
    200 6000    1000
    3.07763 0.00118301 -3.80479e-07 5.92376e-11 -3.45902e-15 -961.038 4.45801
    3.40936 0.000498542 -1.30604e-06 2.74323e-09 -1.40916e-12 -1031.88 2.77049
;
burntProducts   1       24.543
    200 6000    1000
    2.85694 0.00194404 -5.90217e-07 8.40966e-11 -4.49004e-15 -10976.9 6.2227
    3.76275 -0.000787587 1.93485e-06 -3.14906e-10 -3.04738e-13 -11198.7 1.64274
;
products        1       26.9716
    200 6000    1000
    2.99474 0.00154787 -4.9358e-07 7.41282e-11 -4.16457e-15 -5343.37 5.73404
    3.66186 -0.00075343 1.78584e-06 -1.98912e-10 -3.76365e-13 -5476.95 2.47138
;
Tad = 1405.83

phi = 0.4
ft = 0.0116029
fuel fuel       1       2.01594
    200 6000    1000
    2.93287 0.000826608 -1.46402e-07 1.541e-11 -6.88805e-16 -813.066 -1.02433
    2.34433 0.00798052 -1.94782e-05 2.01572e-08 -7.37612e-12 -917.935 0.68301
;
oxidant         1       28.8503
    200 6000    1000
    3.10134 0.00124139 -4.18821e-07 6.64165e-11 -3.91278e-15 -985.276 5.35602
    3.58381 -0.000727005 1.67056e-06 -1.09178e-10 -4.31777e-13 -1050.54 3.11241
;
reactants       1       24.9906
    200 6000    1000
    3.07711 0.00118173 -3.79637e-07 5.908e-11 -3.44906e-15 -960.506 4.4383
    3.40553 0.000525447 -1.37138e-06 2.80585e-09 -1.43062e-12 -1031.47 2.76298
;
burntProducts   1       24.543
    200 6000    1000
    2.85694 0.00194404 -5.90217e-07 8.40966e-11 -4.49004e-15 -10976.9 6.2227
    3.76275 -0.000787587 1.93485e-06 -3.14906e-10 -3.04738e-13 -11198.7 1.64274
;
products        1       26.9271
    200 6000    1000
    2.99222 0.00155512 -4.95348e-07 7.43106e-11 -4.17052e-15 -5446.46 5.74299
    3.66371 -0.000754055 1.78857e-06 -2.01034e-10 -3.75054e-13 -5581.65 2.45621
;
Tad = 1428.79

phi = 0.41
ft = 0.0118895
fuel fuel       1       2.01594
    200 6000    1000
    2.93287 0.000826608 -1.46402e-07 1.541e-11 -6.88805e-16 -813.066 -1.02433
    2.34433 0.00798052 -1.94782e-05 2.01572e-08 -7.37612e-12 -917.935 0.68301
;
oxidant         1       28.8503
    200 6000    1000
    3.10134 0.00124139 -4.18821e-07 6.64165e-11 -3.91278e-15 -985.276 5.35602
    3.58381 -0.000727005 1.67056e-06 -1.09178e-10 -4.31777e-13 -1050.54 3.11241
;
reactants       1       24.9083
    200 6000    1000
    3.07659 0.00118046 -3.78802e-07 5.89235e-11 -3.43917e-15 -959.977 4.41872
    3.40173 0.000552158 -1.43626e-06 2.86802e-09 -1.45192e-12 -1031.06 2.75553
;
burntProducts   1       24.543
    200 6000    1000
    2.85694 0.00194404 -5.90217e-07 8.40966e-11 -4.49004e-15 -10976.9 6.2227
    3.76275 -0.000787587 1.93485e-06 -3.14906e-10 -3.04738e-13 -11198.7 1.64274
;
products        1       26.8829
    200 6000    1000
    2.9897 0.00156234 -4.9711e-07 7.44923e-11 -4.17646e-15 -5549.15 5.75189
    3.66555 -0.000754677 1.79128e-06 -2.03149e-10 -3.73749e-13 -5685.95 2.44111
;
Tad = 1451.55

phi = 0.42
ft = 0.012176
fuel fuel       1       2.01594
    200 6000    1000
    2.93287 0.000826608 -1.46402e-07 1.541e-11 -6.88805e-16 -813.066 -1.02433
    2.34433 0.00798052 -1.94782e-05 2.01572e-08 -7.37612e-12 -917.935 0.68301
;
oxidant         1       28.8503
    200 6000    1000
    3.10134 0.00124139 -4.18821e-07 6.64165e-11 -3.91278e-15 -985.276 5.35602
    3.58381 -0.000727005 1.67056e-06 -1.09178e-10 -4.31777e-13 -1050.54 3.11241
;
reactants       1       24.8265
    200 6000    1000
    3.07608 0.00117919 -3.77972e-07 5.87682e-11 -3.42935e-15 -959.453 4.39929
    3.39796 0.000578679 -1.50067e-06 2.92974e-09 -1.47307e-12 -1030.66 2.74813
;
burntProducts   1       24.543
    200 6000    1000
    2.85694 0.00194404 -5.90217e-07 8.40966e-11 -4.49004e-15 -10976.9 6.2227
    3.76275 -0.000787587 1.93485e-06 -3.14906e-10 -3.04738e-13 -11198.7 1.64274
;
products        1       26.8388
    200 6000    1000
    2.9872 0.00156953 -4.98864e-07 7.46733e-11 -4.18237e-15 -5651.44 5.76077
    3.66738 -0.000755298 1.79399e-06 -2.05255e-10 -3.72448e-13 -5789.85 2.42606
;
Tad = 1474.11

phi = 0.43
ft = 0.0124623
fuel fuel       1       2.01594
    200 6000    1000
    2.93287 0.000826608 -1.46402e-07 1.541e-11 -6.88805e-16 -813.066 -1.02433
    2.34433 0.00798052 -1.94782e-05 2.01572e-08 -7.37612e-12 -917.935 0.68301
;
oxidant         1       28.8503
    200 6000    1000
    3.10134 0.00124139 -4.18821e-07 6.64165e-11 -3.91278e-15 -985.276 5.35602
    3.58381 -0.000727005 1.67056e-06 -1.09178e-10 -4.31777e-13 -1050.54 3.11241
;
reactants       1       24.7454
    200 6000    1000
    3.07557 0.00117794 -3.77148e-07 5.86139e-11 -3.4196e-15 -958.932 4.38
    3.39421 0.000605011 -1.56463e-06 2.99103e-09 -1.49407e-12 -1030.26 2.74078
;
burntProducts   1       24.543
    200 6000    1000
    2.85694 0.00194404 -5.90217e-07 8.40966e-11 -4.49004e-15 -10976.9 6.2227
    3.76275 -0.000787587 1.93485e-06 -3.14906e-10 -3.04738e-13 -11198.7 1.64274
;
products        1       26.7948
    200 6000    1000
    2.98471 0.0015767 -5.00612e-07 7.48536e-11 -4.18825e-15 -5753.34 5.7696
    3.6692 -0.000755915 1.79669e-06 -2.07353e-10 -3.71153e-13 -5893.34 2.41107
;
Tad = 1496.48

phi = 0.44
ft = 0.0127484
fuel fuel       1       2.01594
    200 6000    1000
    2.93287 0.000826608 -1.46402e-07 1.541e-11 -6.88805e-16 -813.066 -1.02433
    2.34433 0.00798052 -1.94782e-05 2.01572e-08 -7.37612e-12 -917.935 0.68301
;
oxidant         1       28.8503
    200 6000    1000
    3.10134 0.00124139 -4.18821e-07 6.64165e-11 -3.91278e-15 -985.276 5.35602
    3.58381 -0.000727005 1.67056e-06 -1.09178e-10 -4.31777e-13 -1050.54 3.11241
;
reactants       1       24.6648
    200 6000    1000
    3.07506 0.00117669 -3.7633e-07 5.84608e-11 -3.40992e-15 -958.415 4.36084
    3.39049 0.000631157 -1.62813e-06 3.05188e-09 -1.51493e-12 -1029.86 2.73349
;
burntProducts   1       24.543
    200 6000    1000
    2.85694 0.00194404 -5.90217e-07 8.40966e-11 -4.49004e-15 -10976.9 6.2227
    3.76275 -0.000787587 1.93485e-06 -3.14906e-10 -3.04738e-13 -11198.7 1.64274
;
products        1       26.7511
    200 6000    1000
    2.98223 0.00158384 -5.02354e-07 7.50332e-11 -4.19412e-15 -5854.85 5.77841
    3.67102 -0.000756531 1.79937e-06 -2.09443e-10 -3.69862e-13 -5996.44 2.39614
;
Tad = 1518.65

phi = 0.45
ft = 0.0130344
fuel fuel       1       2.01594
    200 6000    1000
    2.93287 0.000826608 -1.46402e-07 1.541e-11 -6.88805e-16 -813.066 -1.02433
    2.34433 0.00798052 -1.94782e-05 2.01572e-08 -7.37612e-12 -917.935 0.68301
;
oxidant         1       28.8503
    200 6000    1000
    3.10134 0.00124139 -4.18821e-07 6.64165e-11 -3.91278e-15 -985.276 5.35602
    3.58381 -0.000727005 1.67056e-06 -1.09178e-10 -4.31777e-13 -1050.54 3.11241
;
reactants       1       24.5848
    200 6000    1000
    3.07456 0.00117546 -3.75518e-07 5.83087e-11 -3.40031e-15 -957.902 4.34182
    3.38679 0.000657118 -1.69118e-06 3.11231e-09 -1.53563e-12 -1029.46 2.72624
;
burntProducts   1       24.543
    200 6000    1000
    2.85694 0.00194404 -5.90217e-07 8.40966e-11 -4.49004e-15 -10976.9 6.2227
    3.76275 -0.000787587 1.93485e-06 -3.14906e-10 -3.04738e-13 -11198.7 1.64274
;
products        1       26.7075
    200 6000    1000
    2.97975 0.00159095 -5.04088e-07 7.52121e-11 -4.19996e-15 -5955.96 5.78718
    3.67283 -0.000757144 1.80204e-06 -2.11525e-10 -3.68576e-13 -6099.14 2.38127
;
Tad = 1540.63

phi = 0.46
ft = 0.0133202
fuel fuel       1       2.01594
    200 6000    1000
    2.93287 0.000826608 -1.46402e-07 1.541e-11 -6.88805e-16 -813.066 -1.02433
    2.34433 0.00798052 -1.94782e-05 2.01572e-08 -7.37612e-12 -917.935 0.68301
;
oxidant         1       28.8503
    200 6000    1000
    3.10134 0.00124139 -4.18821e-07 6.64165e-11 -3.91278e-15 -985.276 5.35602
    3.58381 -0.000727005 1.67056e-06 -1.09178e-10 -4.31777e-13 -1050.54 3.11241
;
reactants       1       24.5054
    200 6000    1000
    3.07406 0.00117423 -3.74711e-07 5.81577e-11 -3.39076e-15 -957.392 4.32293
    3.38312 0.000682896 -1.75379e-06 3.1723e-09 -1.55619e-12 -1029.07 2.71905
;
burntProducts   1       24.543
    200 6000    1000
    2.85694 0.00194404 -5.90217e-07 8.40966e-11 -4.49004e-15 -10976.9 6.2227
    3.76275 -0.000787587 1.93485e-06 -3.14906e-10 -3.04738e-13 -11198.7 1.64274
;
products        1       26.6641
    200 6000    1000
    2.97729 0.00159803 -5.05816e-07 7.53904e-11 -4.20578e-15 -6056.69 5.79592
    3.67464 -0.000757755 1.80471e-06 -2.13599e-10 -3.67296e-13 -6201.45 2.36645
;
Tad = 1562.43

phi = 0.47
ft = 0.0136058
fuel fuel       1       2.01594
    200 6000    1000
    2.93287 0.000826608 -1.46402e-07 1.541e-11 -6.88805e-16 -813.066 -1.02433
    2.34433 0.00798052 -1.94782e-05 2.01572e-08 -7.37612e-12 -917.935 0.68301
;
oxidant         1       28.8503
    200 6000    1000
    3.10134 0.00124139 -4.18821e-07 6.64165e-11 -3.91278e-15 -985.276 5.35602
    3.58381 -0.000727005 1.67056e-06 -1.09178e-10 -4.31777e-13 -1050.54 3.11241
;
reactants       1       24.4265
    200 6000    1000
    3.07357 0.00117301 -3.73911e-07 5.80078e-11 -3.38129e-15 -956.886 4.30417
    3.37948 0.000708493 -1.81596e-06 3.23188e-09 -1.5766e-12 -1028.68 2.71191
;
burntProducts   1       24.543
    200 6000    1000
    2.85694 0.00194404 -5.90217e-07 8.40966e-11 -4.49004e-15 -10976.9 6.2227
    3.76275 -0.000787587 1.93485e-06 -3.14906e-10 -3.04738e-13 -11198.7 1.64274
;
products        1       26.6208
    200 6000    1000
    2.97483 0.00160509 -5.07537e-07 7.55679e-11 -4.21158e-15 -6157.04 5.80462
    3.67643 -0.000758363 1.80736e-06 -2.15665e-10 -3.6602e-13 -6303.36 2.35169
;
Tad = 1584.04

phi = 0.48
ft = 0.0138913
fuel fuel       1       2.01594
    200 6000    1000
    2.93287 0.000826608 -1.46402e-07 1.541e-11 -6.88805e-16 -813.066 -1.02433
    2.34433 0.00798052 -1.94782e-05 2.01572e-08 -7.37612e-12 -917.935 0.68301
;
oxidant         1       28.8503
    200 6000    1000
    3.10134 0.00124139 -4.18821e-07 6.64165e-11 -3.91278e-15 -985.276 5.35602
    3.58381 -0.000727005 1.67056e-06 -1.09178e-10 -4.31777e-13 -1050.54 3.11241
;
reactants       1       24.3482
    200 6000    1000
    3.07307 0.0011718 -3.73115e-07 5.78589e-11 -3.37187e-15 -956.383 4.28555
    3.37586 0.000733911 -1.8777e-06 3.29104e-09 -1.59687e-12 -1028.29 2.70482
;
burntProducts   1       24.543
    200 6000    1000
    2.85694 0.00194404 -5.90217e-07 8.40966e-11 -4.49004e-15 -10976.9 6.2227
    3.76275 -0.000787587 1.93485e-06 -3.14906e-10 -3.04738e-13 -11198.7 1.64274
;
products        1       26.5777
    200 6000    1000
    2.97239 0.00161212 -5.09252e-07 7.57448e-11 -4.21735e-15 -6257 5.81329
    3.67822 -0.000758969 1.81001e-06 -2.17723e-10 -3.64749e-13 -6404.89 2.33699
;
Tad = 1605.47

phi = 0.49
ft = 0.0141766
fuel fuel       1       2.01594
    200 6000    1000
    2.93287 0.000826608 -1.46402e-07 1.541e-11 -6.88805e-16 -813.066 -1.02433
    2.34433 0.00798052 -1.94782e-05 2.01572e-08 -7.37612e-12 -917.935 0.68301
;
oxidant         1       28.8503
    200 6000    1000
    3.10134 0.00124139 -4.18821e-07 6.64165e-11 -3.91278e-15 -985.276 5.35602
    3.58381 -0.000727005 1.67056e-06 -1.09178e-10 -4.31777e-13 -1050.54 3.11241
;
reactants       1       24.2704
    200 6000    1000
    3.07259 0.0011706 -3.72326e-07 5.7711e-11 -3.36253e-15 -955.884 4.26705
    3.37227 0.000759152 -1.939e-06 3.34979e-09 -1.617e-12 -1027.91 2.69778
;
burntProducts   1       24.543
    200 6000    1000
    2.85694 0.00194404 -5.90217e-07 8.40966e-11 -4.49004e-15 -10976.9 6.2227
    3.76275 -0.000787587 1.93485e-06 -3.14906e-10 -3.04738e-13 -11198.7 1.64274
;
products        1       26.5348
    200 6000    1000
    2.96995 0.00161912 -5.1096e-07 7.5921e-11 -4.2231e-15 -6356.58 5.82193
    3.68001 -0.000759573 1.81264e-06 -2.19774e-10 -3.63483e-13 -6506.03 2.32234
;
Tad = 1626.72

phi = 0.5
ft = 0.0144617
fuel fuel       1       2.01594
    200 6000    1000
    2.93287 0.000826608 -1.46402e-07 1.541e-11 -6.88805e-16 -813.066 -1.02433
    2.34433 0.00798052 -1.94782e-05 2.01572e-08 -7.37612e-12 -917.935 0.68301
;
oxidant         1       28.8503
    200 6000    1000
    3.10134 0.00124139 -4.18821e-07 6.64165e-11 -3.91278e-15 -985.276 5.35602
    3.58381 -0.000727005 1.67056e-06 -1.09178e-10 -4.31777e-13 -1050.54 3.11241
;
reactants       1       24.1931
    200 6000    1000
    3.0721 0.0011694 -3.71541e-07 5.75642e-11 -3.35325e-15 -955.388 4.24869
    3.3687 0.000784218 -1.99988e-06 3.40813e-09 -1.63699e-12 -1027.53 2.69078
;
burntProducts   1       24.543
    200 6000    1000
    2.85694 0.00194404 -5.90217e-07 8.40966e-11 -4.49004e-15 -10976.9 6.2227
    3.76275 -0.000787587 1.93485e-06 -3.14906e-10 -3.04738e-13 -11198.7 1.64274
;
products        1       26.492
    200 6000    1000
    2.96753 0.0016261 -5.12662e-07 7.60966e-11 -4.22884e-15 -6455.78 5.83054
    3.68178 -0.000760175 1.81527e-06 -2.21816e-10 -3.62221e-13 -6606.79 2.30775
;
Tad = 1647.79

phi = 0.51
ft = 0.0147467
fuel fuel       1       2.01594
    200 6000    1000
    2.93287 0.000826608 -1.46402e-07 1.541e-11 -6.88805e-16 -813.066 -1.02433
    2.34433 0.00798052 -1.94782e-05 2.01572e-08 -7.37612e-12 -917.935 0.68301
;
oxidant         1       28.8503
    200 6000    1000
    3.10134 0.00124139 -4.18821e-07 6.64165e-11 -3.91278e-15 -985.276 5.35602
    3.58381 -0.000727005 1.67056e-06 -1.09178e-10 -4.31777e-13 -1050.54 3.11241
;
reactants       1       24.1164
    200 6000    1000
    3.07162 0.00116822 -3.70763e-07 5.74184e-11 -3.34403e-15 -954.896 4.23045
    3.36515 0.00080911 -2.06034e-06 3.46606e-09 -1.65685e-12 -1027.15 2.68384
;
burntProducts   1       24.543
    200 6000    1000
    2.85694 0.00194404 -5.90217e-07 8.40966e-11 -4.49004e-15 -10976.9 6.2227
    3.76275 -0.000787587 1.93485e-06 -3.14906e-10 -3.04738e-13 -11198.7 1.64274
;
products        1       26.4494
    200 6000    1000
    2.96511 0.00163305 -5.14357e-07 7.62714e-11 -4.23455e-15 -6554.61 5.83911
    3.68355 -0.000760774 1.81788e-06 -2.23851e-10 -3.60965e-13 -6707.17 2.29322
;
Tad = 1668.69

phi = 0.52
ft = 0.0150315
fuel fuel       1       2.01594
    200 6000    1000
    2.93287 0.000826608 -1.46402e-07 1.541e-11 -6.88805e-16 -813.066 -1.02433
    2.34433 0.00798052 -1.94782e-05 2.01572e-08 -7.37612e-12 -917.935 0.68301
;
oxidant         1       28.8503
    200 6000    1000
    3.10134 0.00124139 -4.18821e-07 6.64165e-11 -3.91278e-15 -985.276 5.35602
    3.58381 -0.000727005 1.67056e-06 -1.09178e-10 -4.31777e-13 -1050.54 3.11241
;
reactants       1       24.0402
    200 6000    1000
    3.07114 0.00116704 -3.69989e-07 5.72735e-11 -3.33488e-15 -954.407 4.21233
    3.36164 0.000833831 -2.12038e-06 3.5236e-09 -1.67656e-12 -1026.77 2.67694
;
burntProducts   1       24.543
    200 6000    1000
    2.85694 0.00194404 -5.90217e-07 8.40966e-11 -4.49004e-15 -10976.9 6.2227
    3.76275 -0.000787587 1.93485e-06 -3.14906e-10 -3.04738e-13 -11198.7 1.64274
;
products        1       26.407
    200 6000    1000
    2.9627 0.00163997 -5.16046e-07 7.64456e-11 -4.24023e-15 -6653.06 5.84765
    3.68532 -0.000761371 1.82048e-06 -2.25878e-10 -3.59713e-13 -6807.16 2.27873
;
Tad = 1689.42

phi = 0.53
ft = 0.0153161
fuel fuel       1       2.01594
    200 6000    1000
    2.93287 0.000826608 -1.46402e-07 1.541e-11 -6.88805e-16 -813.066 -1.02433
    2.34433 0.00798052 -1.94782e-05 2.01572e-08 -7.37612e-12 -917.935 0.68301
;
oxidant         1       28.8503
    200 6000    1000
    3.10134 0.00124139 -4.18821e-07 6.64165e-11 -3.91278e-15 -985.276 5.35602
    3.58381 -0.000727005 1.67056e-06 -1.09178e-10 -4.31777e-13 -1050.54 3.11241
;
reactants       1       23.9646
    200 6000    1000
    3.07067 0.00116587 -3.69221e-07 5.71297e-11 -3.32579e-15 -953.921 4.19434
    3.35814 0.000858382 -2.18001e-06 3.58074e-09 -1.69614e-12 -1026.4 2.67009
;
burntProducts   1       24.543
    200 6000    1000
    2.85694 0.00194404 -5.90217e-07 8.40966e-11 -4.49004e-15 -10976.9 6.2227
    3.76275 -0.000787587 1.93485e-06 -3.14906e-10 -3.04738e-13 -11198.7 1.64274
;
products        1       26.3647
    200 6000    1000
    2.9603 0.00164687 -5.17729e-07 7.66192e-11 -4.2459e-15 -6751.14 5.85615
    3.68707 -0.000761965 1.82308e-06 -2.27898e-10 -3.58466e-13 -6906.78 2.26431
;
Tad = 1709.98

phi = 0.54
ft = 0.0156006
fuel fuel       1       2.01594
    200 6000    1000
    2.93287 0.000826608 -1.46402e-07 1.541e-11 -6.88805e-16 -813.066 -1.02433
    2.34433 0.00798052 -1.94782e-05 2.01572e-08 -7.37612e-12 -917.935 0.68301
;
oxidant         1       28.8503
    200 6000    1000
    3.10134 0.00124139 -4.18821e-07 6.64165e-11 -3.91278e-15 -985.276 5.35602
    3.58381 -0.000727005 1.67056e-06 -1.09178e-10 -4.31777e-13 -1050.54 3.11241
;
reactants       1       23.8894
    200 6000    1000
    3.07019 0.00116471 -3.68458e-07 5.69869e-11 -3.31676e-15 -953.439 4.17648
    3.35467 0.000882765 -2.23923e-06 3.63749e-09 -1.71559e-12 -1026.03 2.66329
;
burntProducts   1       24.543
    200 6000    1000
    2.85694 0.00194404 -5.90217e-07 8.40966e-11 -4.49004e-15 -10976.9 6.2227
    3.76275 -0.000787587 1.93485e-06 -3.14906e-10 -3.04738e-13 -11198.7 1.64274
;
products        1       26.3226
    200 6000    1000
    2.95791 0.00165374 -5.19405e-07 7.67921e-11 -4.25154e-15 -6848.85 5.86463
    3.68882 -0.000762558 1.82566e-06 -2.29909e-10 -3.57224e-13 -7006.02 2.24994
;
Tad = 1730.37

phi = 0.55
ft = 0.0158849
fuel fuel       1       2.01594
    200 6000    1000
    2.93287 0.000826608 -1.46402e-07 1.541e-11 -6.88805e-16 -813.066 -1.02433
    2.34433 0.00798052 -1.94782e-05 2.01572e-08 -7.37612e-12 -917.935 0.68301
;
oxidant         1       28.8503
    200 6000    1000
    3.10134 0.00124139 -4.18821e-07 6.64165e-11 -3.91278e-15 -985.276 5.35602
    3.58381 -0.000727005 1.67056e-06 -1.09178e-10 -4.31777e-13 -1050.54 3.11241
;
reactants       1       23.8148
    200 6000    1000
    3.06973 0.00116355 -3.67701e-07 5.68451e-11 -3.3078e-15 -952.96 4.15873
    3.35122 0.000906982 -2.29805e-06 3.69385e-09 -1.7349e-12 -1025.66 2.65653
;
burntProducts   1       24.543
    200 6000    1000
    2.85694 0.00194404 -5.90217e-07 8.40966e-11 -4.49004e-15 -10976.9 6.2227
    3.76275 -0.000787587 1.93485e-06 -3.14906e-10 -3.04738e-13 -11198.7 1.64274
;
products        1       26.2806
    200 6000    1000
    2.95553 0.00166058 -5.21074e-07 7.69643e-11 -4.25717e-15 -6946.19 5.87307
    3.69057 -0.000763148 1.82824e-06 -2.31914e-10 -3.55986e-13 -7104.89 2.23562
;
Tad = 1750.6

phi = 0.56
ft = 0.0161691
fuel fuel       1       2.01594
    200 6000    1000
    2.93287 0.000826608 -1.46402e-07 1.541e-11 -6.88805e-16 -813.066 -1.02433
    2.34433 0.00798052 -1.94782e-05 2.01572e-08 -7.37612e-12 -917.935 0.68301
;
oxidant         1       28.8503
    200 6000    1000
    3.10134 0.00124139 -4.18821e-07 6.64165e-11 -3.91278e-15 -985.276 5.35602
    3.58381 -0.000727005 1.67056e-06 -1.09178e-10 -4.31777e-13 -1050.54 3.11241
;
reactants       1       23.7407
    200 6000    1000
    3.06926 0.00116241 -3.66948e-07 5.67042e-11 -3.29889e-15 -952.484 4.14111
    3.3478 0.000931034 -2.35647e-06 3.74983e-09 -1.75408e-12 -1025.29 2.64982
;
burntProducts   1       24.543
    200 6000    1000
    2.85694 0.00194404 -5.90217e-07 8.40966e-11 -4.49004e-15 -10976.9 6.2227
    3.76275 -0.000787587 1.93485e-06 -3.14906e-10 -3.04738e-13 -11198.7 1.64274
;
products        1       26.2388
    200 6000    1000
    2.95316 0.0016674 -5.22738e-07 7.71359e-11 -4.26277e-15 -7043.16 5.88149
    3.6923 -0.000763736 1.8308e-06 -2.3391e-10 -3.54753e-13 -7203.38 2.22135
;
Tad = 1770.67

phi = 0.57
ft = 0.016453
fuel fuel       1       2.01594
    200 6000    1000
    2.93287 0.000826608 -1.46402e-07 1.541e-11 -6.88805e-16 -813.066 -1.02433
    2.34433 0.00798052 -1.94782e-05 2.01572e-08 -7.37612e-12 -917.935 0.68301
;
oxidant         1       28.8503
    200 6000    1000
    3.10134 0.00124139 -4.18821e-07 6.64165e-11 -3.91278e-15 -985.276 5.35602
    3.58381 -0.000727005 1.67056e-06 -1.09178e-10 -4.31777e-13 -1050.54 3.11241
;
reactants       1       23.6671
    200 6000    1000
    3.0688 0.00116127 -3.66201e-07 5.65642e-11 -3.29004e-15 -952.012 4.1236
    3.3444 0.000954923 -2.41449e-06 3.80543e-09 -1.77313e-12 -1024.93 2.64316
;
burntProducts   1       24.543
    200 6000    1000
    2.85694 0.00194404 -5.90217e-07 8.40966e-11 -4.49004e-15 -10976.9 6.2227
    3.76275 -0.000787587 1.93485e-06 -3.14906e-10 -3.04738e-13 -11198.7 1.64274
;
products        1       26.1971
    200 6000    1000
    2.9508 0.0016742 -5.24395e-07 7.73069e-11 -4.26835e-15 -7139.78 5.88987
    3.69403 -0.000764322 1.83336e-06 -2.359e-10 -3.53525e-13 -7301.51 2.20714
;
Tad = 1790.57

phi = 0.58
ft = 0.0167369
fuel fuel       1       2.01594
    200 6000    1000
    2.93287 0.000826608 -1.46402e-07 1.541e-11 -6.88805e-16 -813.066 -1.02433
    2.34433 0.00798052 -1.94782e-05 2.01572e-08 -7.37612e-12 -917.935 0.68301
;
oxidant         1       28.8503
    200 6000    1000
    3.10134 0.00124139 -4.18821e-07 6.64165e-11 -3.91278e-15 -985.276 5.35602
    3.58381 -0.000727005 1.67056e-06 -1.09178e-10 -4.31777e-13 -1050.54 3.11241
;
reactants       1       23.5939
    200 6000    1000
    3.06834 0.00116014 -3.65459e-07 5.64252e-11 -3.28126e-15 -951.543 4.10622
    3.34102 0.00097865 -2.47212e-06 3.86066e-09 -1.79205e-12 -1024.57 2.63654
;
burntProducts   1       24.543
    200 6000    1000
    2.85694 0.00194404 -5.90217e-07 8.40966e-11 -4.49004e-15 -10976.9 6.2227
    3.76275 -0.000787587 1.93485e-06 -3.14906e-10 -3.04738e-13 -11198.7 1.64274
;
products        1       26.1556
    200 6000    1000
    2.94844 0.00168097 -5.26046e-07 7.74772e-11 -4.27391e-15 -7236.03 5.89821
    3.69576 -0.000764905 1.8359e-06 -2.37882e-10 -3.52301e-13 -7399.27 2.19298
;
Tad = 1810.32

phi = 0.59
ft = 0.0170205
fuel fuel       1       2.01594
    200 6000    1000
    2.93287 0.000826608 -1.46402e-07 1.541e-11 -6.88805e-16 -813.066 -1.02433
    2.34433 0.00798052 -1.94782e-05 2.01572e-08 -7.37612e-12 -917.935 0.68301
;
oxidant         1       28.8503
    200 6000    1000
    3.10134 0.00124139 -4.18821e-07 6.64165e-11 -3.91278e-15 -985.276 5.35602
    3.58381 -0.000727005 1.67056e-06 -1.09178e-10 -4.31777e-13 -1050.54 3.11241
;
reactants       1       23.5213
    200 6000    1000
    3.06788 0.00115902 -3.64721e-07 5.62872e-11 -3.27253e-15 -951.077 4.08895
    3.33767 0.00100222 -2.52936e-06 3.91551e-09 -1.81085e-12 -1024.21 2.62996
;
burntProducts   1       24.543
    200 6000    1000
    2.85694 0.00194404 -5.90217e-07 8.40966e-11 -4.49004e-15 -10976.9 6.2227
    3.76275 -0.000787587 1.93485e-06 -3.14906e-10 -3.04738e-13 -11198.7 1.64274
;
products        1       26.1143
    200 6000    1000
    2.9461 0.00168771 -5.27691e-07 7.76469e-11 -4.27945e-15 -7331.92 5.90653
    3.69747 -0.000765487 1.83844e-06 -2.39856e-10 -3.51082e-13 -7496.66 2.17888
;
Tad = 1829.92

phi = 0.6
ft = 0.017304
fuel fuel       1       2.01594
    200 6000    1000
    2.93287 0.000826608 -1.46402e-07 1.541e-11 -6.88805e-16 -813.066 -1.02433
    2.34433 0.00798052 -1.94782e-05 2.01572e-08 -7.37612e-12 -917.935 0.68301
;
oxidant         1       28.8503
    200 6000    1000
    3.10134 0.00124139 -4.18821e-07 6.64165e-11 -3.91278e-15 -985.276 5.35602
    3.58381 -0.000727005 1.67056e-06 -1.09178e-10 -4.31777e-13 -1050.54 3.11241
;
reactants       1       23.4492
    200 6000    1000
    3.06743 0.0011579 -3.63989e-07 5.61501e-11 -3.26387e-15 -950.614 4.0718
    3.33433 0.00102563 -2.58622e-06 3.97e-09 -1.82952e-12 -1023.85 2.62343
;
burntProducts   1       24.543
    200 6000    1000
    2.85694 0.00194404 -5.90217e-07 8.40966e-11 -4.49004e-15 -10976.9 6.2227
    3.76275 -0.000787587 1.93485e-06 -3.14906e-10 -3.04738e-13 -11198.7 1.64274
;
products        1       26.0731
    200 6000    1000
    2.94376 0.00169443 -5.2933e-07 7.78159e-11 -4.28497e-15 -7427.45 5.91482
    3.69918 -0.000766066 1.84097e-06 -2.41823e-10 -3.49867e-13 -7593.69 2.16483
;
Tad = 1849.36

phi = 0.61
ft = 0.0175873
fuel fuel       1       2.01594
    200 6000    1000
    2.93287 0.000826608 -1.46402e-07 1.541e-11 -6.88805e-16 -813.066 -1.02433
    2.34433 0.00798052 -1.94782e-05 2.01572e-08 -7.37612e-12 -917.935 0.68301
;
oxidant         1       28.8503
    200 6000    1000
    3.10134 0.00124139 -4.18821e-07 6.64165e-11 -3.91278e-15 -985.276 5.35602
    3.58381 -0.000727005 1.67056e-06 -1.09178e-10 -4.31777e-13 -1050.54 3.11241
;
reactants       1       23.3775
    200 6000    1000
    3.06698 0.00115679 -3.63261e-07 5.60138e-11 -3.25526e-15 -950.154 4.05476
    3.33102 0.00104888 -2.64269e-06 4.02412e-09 -1.84806e-12 -1023.5 2.61694
;
burntProducts   1       24.543
    200 6000    1000
    2.85694 0.00194404 -5.90217e-07 8.40966e-11 -4.49004e-15 -10976.9 6.2227
    3.76275 -0.000787587 1.93485e-06 -3.14906e-10 -3.04738e-13 -11198.7 1.64274
;
products        1       26.0321
    200 6000    1000
    2.94143 0.00170112 -5.30963e-07 7.79843e-11 -4.29047e-15 -7522.63 5.92307
    3.70089 -0.000766643 1.84349e-06 -2.43783e-10 -3.48657e-13 -7690.36 2.15083
;
Tad = 1868.65

phi = 0.62
ft = 0.0178705
fuel fuel       1       2.01594
    200 6000    1000
    2.93287 0.000826608 -1.46402e-07 1.541e-11 -6.88805e-16 -813.066 -1.02433
    2.34433 0.00798052 -1.94782e-05 2.01572e-08 -7.37612e-12 -917.935 0.68301
;
oxidant         1       28.8503
    200 6000    1000
    3.10134 0.00124139 -4.18821e-07 6.64165e-11 -3.91278e-15 -985.276 5.35602
    3.58381 -0.000727005 1.67056e-06 -1.09178e-10 -4.31777e-13 -1050.54 3.11241
;
reactants       1       23.3063
    200 6000    1000
    3.06653 0.00115569 -3.62539e-07 5.58785e-11 -3.2467e-15 -949.697 4.03783
    3.32774 0.00107198 -2.69879e-06 4.07788e-09 -1.86649e-12 -1023.14 2.6105
;
burntProducts   1       24.543
    200 6000    1000
    2.85694 0.00194404 -5.90217e-07 8.40966e-11 -4.49004e-15 -10976.9 6.2227
    3.76275 -0.000787587 1.93485e-06 -3.14906e-10 -3.04738e-13 -11198.7 1.64274
;
products        1       25.9912
    200 6000    1000
    2.93911 0.00170779 -5.32589e-07 7.81521e-11 -4.29595e-15 -7617.45 5.9313
    3.70259 -0.000767218 1.84599e-06 -2.45735e-10 -3.47451e-13 -7786.67 2.13688
;
Tad = 1887.79

phi = 0.63
ft = 0.0181535
fuel fuel       1       2.01594
    200 6000    1000
    2.93287 0.000826608 -1.46402e-07 1.541e-11 -6.88805e-16 -813.066 -1.02433
    2.34433 0.00798052 -1.94782e-05 2.01572e-08 -7.37612e-12 -917.935 0.68301
;
oxidant         1       28.8503
    200 6000    1000
    3.10134 0.00124139 -4.18821e-07 6.64165e-11 -3.91278e-15 -985.276 5.35602
    3.58381 -0.000727005 1.67056e-06 -1.09178e-10 -4.31777e-13 -1050.54 3.11241
;
reactants       1       23.2356
    200 6000    1000
    3.06609 0.0011546 -3.61821e-07 5.57441e-11 -3.23821e-15 -949.243 4.02102
    3.32447 0.00109492 -2.75452e-06 4.13128e-09 -1.88478e-12 -1022.8 2.6041
;
burntProducts   1       24.543
    200 6000    1000
    2.85694 0.00194404 -5.90217e-07 8.40966e-11 -4.49004e-15 -10976.9 6.2227
    3.76275 -0.000787587 1.93485e-06 -3.14906e-10 -3.04738e-13 -11198.7 1.64274
;
products        1       25.9505
    200 6000    1000
    2.9368 0.00171443 -5.3421e-07 7.83193e-11 -4.30141e-15 -7711.92 5.93949
    3.70428 -0.000767791 1.84849e-06 -2.4768e-10 -3.4625e-13 -7882.62 2.12298
;
Tad = 1906.78

phi = 0.64
ft = 0.0184363
fuel fuel       1       2.01594
    200 6000    1000
    2.93287 0.000826608 -1.46402e-07 1.541e-11 -6.88805e-16 -813.066 -1.02433
    2.34433 0.00798052 -1.94782e-05 2.01572e-08 -7.37612e-12 -917.935 0.68301
;
oxidant         1       28.8503
    200 6000    1000
    3.10134 0.00124139 -4.18821e-07 6.64165e-11 -3.91278e-15 -985.276 5.35602
    3.58381 -0.000727005 1.67056e-06 -1.09178e-10 -4.31777e-13 -1050.54 3.11241
;
reactants       1       23.1654
    200 6000    1000
    3.06565 0.00115352 -3.61108e-07 5.56106e-11 -3.22977e-15 -948.792 4.00432
    3.32123 0.00111772 -2.80988e-06 4.18433e-09 -1.90296e-12 -1022.45 2.59774
;
burntProducts   1       24.543
    200 6000    1000
    2.85694 0.00194404 -5.90217e-07 8.40966e-11 -4.49004e-15 -10976.9 6.2227
    3.76275 -0.000787587 1.93485e-06 -3.14906e-10 -3.04738e-13 -11198.7 1.64274
;
products        1       25.9099
    200 6000    1000
    2.9345 0.00172105 -5.35825e-07 7.84858e-11 -4.30685e-15 -7806.05 5.94766
    3.70596 -0.000768362 1.85098e-06 -2.49618e-10 -3.45053e-13 -7978.22 2.10914
;
Tad = 1925.63

phi = 0.65
ft = 0.018719
fuel fuel       1       2.01594
    200 6000    1000
    2.93287 0.000826608 -1.46402e-07 1.541e-11 -6.88805e-16 -813.066 -1.02433
    2.34433 0.00798052 -1.94782e-05 2.01572e-08 -7.37612e-12 -917.935 0.68301
;
oxidant         1       28.8503
    200 6000    1000
    3.10134 0.00124139 -4.18821e-07 6.64165e-11 -3.91278e-15 -985.276 5.35602
    3.58381 -0.000727005 1.67056e-06 -1.09178e-10 -4.31777e-13 -1050.54 3.11241
;
reactants       1       23.0956
    200 6000    1000
    3.06521 0.00115244 -3.60399e-07 5.5478e-11 -3.22139e-15 -948.344 3.98773
    3.318 0.00114036 -2.86487e-06 4.23703e-09 -1.92102e-12 -1022.1 2.59142
;
burntProducts   1       24.543
    200 6000    1000
    2.85694 0.00194404 -5.90217e-07 8.40966e-11 -4.49004e-15 -10976.9 6.2227
    3.76275 -0.000787587 1.93485e-06 -3.14906e-10 -3.04738e-13 -11198.7 1.64274
;
products        1       25.8695
    200 6000    1000
    2.9322 0.00172765 -5.37433e-07 7.86518e-11 -4.31226e-15 -7899.82 5.95579
    3.70764 -0.00076893 1.85346e-06 -2.51549e-10 -3.43861e-13 -8073.47 2.09535
;
Tad = 1944.33

phi = 0.66
ft = 0.0190015
fuel fuel       1       2.01594
    200 6000    1000
    2.93287 0.000826608 -1.46402e-07 1.541e-11 -6.88805e-16 -813.066 -1.02433
    2.34433 0.00798052 -1.94782e-05 2.01572e-08 -7.37612e-12 -917.935 0.68301
;
oxidant         1       28.8503
    200 6000    1000
    3.10134 0.00124139 -4.18821e-07 6.64165e-11 -3.91278e-15 -985.276 5.35602
    3.58381 -0.000727005 1.67056e-06 -1.09178e-10 -4.31777e-13 -1050.54 3.11241
;
reactants       1       23.0263
    200 6000    1000
    3.06478 0.00115137 -3.59696e-07 5.53462e-11 -3.21306e-15 -947.9 3.97125
    3.3148 0.00116285 -2.91951e-06 4.28938e-09 -1.93896e-12 -1021.76 2.58514
;
burntProducts   1       24.543
    200 6000    1000
    2.85694 0.00194404 -5.90217e-07 8.40966e-11 -4.49004e-15 -10976.9 6.2227
    3.76275 -0.000787587 1.93485e-06 -3.14906e-10 -3.04738e-13 -11198.7 1.64274
;
products        1       25.8292
    200 6000    1000
    2.92992 0.00173422 -5.39036e-07 7.88171e-11 -4.31766e-15 -7993.25 5.9639
    3.70932 -0.000769497 1.85593e-06 -2.53473e-10 -3.42673e-13 -8168.36 2.0816
;
Tad = 1962.9

phi = 0.67
ft = 0.0192839
fuel fuel       1       2.01594
    200 6000    1000
    2.93287 0.000826608 -1.46402e-07 1.541e-11 -6.88805e-16 -813.066 -1.02433
    2.34433 0.00798052 -1.94782e-05 2.01572e-08 -7.37612e-12 -917.935 0.68301
;
oxidant         1       28.8503
    200 6000    1000
    3.10134 0.00124139 -4.18821e-07 6.64165e-11 -3.91278e-15 -985.276 5.35602
    3.58381 -0.000727005 1.67056e-06 -1.09178e-10 -4.31777e-13 -1050.54 3.11241
;
reactants       1       22.9574
    200 6000    1000
    3.06434 0.0011503 -3.58997e-07 5.52153e-11 -3.20479e-15 -947.458 3.95487
    3.31162 0.0011852 -2.97378e-06 4.34139e-09 -1.95678e-12 -1021.42 2.57891
;
burntProducts   1       24.543
    200 6000    1000
    2.85694 0.00194404 -5.90217e-07 8.40966e-11 -4.49004e-15 -10976.9 6.2227
    3.76275 -0.000787587 1.93485e-06 -3.14906e-10 -3.04738e-13 -11198.7 1.64274
;
products        1       25.7891
    200 6000    1000
    2.92764 0.00174076 -5.40633e-07 7.89818e-11 -4.32304e-15 -8086.33 5.97197
    3.71098 -0.000770061 1.8584e-06 -2.55389e-10 -3.41489e-13 -8262.9 2.06791
;
Tad = 1981.32

phi = 0.68
ft = 0.0195661
fuel fuel       1       2.01594
    200 6000    1000
    2.93287 0.000826608 -1.46402e-07 1.541e-11 -6.88805e-16 -813.066 -1.02433
    2.34433 0.00798052 -1.94782e-05 2.01572e-08 -7.37612e-12 -917.935 0.68301
;
oxidant         1       28.8503
    200 6000    1000
    3.10134 0.00124139 -4.18821e-07 6.64165e-11 -3.91278e-15 -985.276 5.35602
    3.58381 -0.000727005 1.67056e-06 -1.09178e-10 -4.31777e-13 -1050.54 3.11241
;
reactants       1       22.889
    200 6000    1000
    3.06391 0.00114924 -3.58302e-07 5.50853e-11 -3.19657e-15 -947.019 3.9386
    3.30846 0.0012074 -3.0277e-06 4.39306e-09 -1.97448e-12 -1021.08 2.57271
;
burntProducts   1       24.543
    200 6000    1000
    2.85694 0.00194404 -5.90217e-07 8.40966e-11 -4.49004e-15 -10976.9 6.2227
    3.76275 -0.000787587 1.93485e-06 -3.14906e-10 -3.04738e-13 -11198.7 1.64274
;
products        1       25.7491
    200 6000    1000
    2.92537 0.00174729 -5.42223e-07 7.91459e-11 -4.3284e-15 -8179.07 5.98002
    3.71265 -0.000770623 1.86085e-06 -2.57299e-10 -3.4031e-13 -8357.1 2.05427
;
Tad = 1999.6

phi = 0.69
ft = 0.0198481
fuel fuel       1       2.01594
    200 6000    1000
    2.93287 0.000826608 -1.46402e-07 1.541e-11 -6.88805e-16 -813.066 -1.02433
    2.34433 0.00798052 -1.94782e-05 2.01572e-08 -7.37612e-12 -917.935 0.68301
;
oxidant         1       28.8503
    200 6000    1000
    3.10134 0.00124139 -4.18821e-07 6.64165e-11 -3.91278e-15 -985.276 5.35602
    3.58381 -0.000727005 1.67056e-06 -1.09178e-10 -4.31777e-13 -1050.54 3.11241
;
reactants       1       22.821
    200 6000    1000
    3.06349 0.00114819 -3.57612e-07 5.49561e-11 -3.1884e-15 -946.582 3.92244
    3.30532 0.00122945 -3.08127e-06 4.44439e-09 -1.99207e-12 -1020.75 2.56656
;
burntProducts   1       24.543
    200 6000    1000
    2.85694 0.00194404 -5.90217e-07 8.40966e-11 -4.49004e-15 -10976.9 6.2227
    3.76275 -0.000787587 1.93485e-06 -3.14906e-10 -3.04738e-13 -11198.7 1.64274
;
products        1       25.7093
    200 6000    1000
    2.92311 0.00175378 -5.43809e-07 7.93094e-11 -4.33374e-15 -8271.48 5.98803
    3.7143 -0.000771184 1.86329e-06 -2.59202e-10 -3.39135e-13 -8450.95 2.04068
;
Tad = 2017.75

phi = 0.7
ft = 0.0201299
fuel fuel       1       2.01594
    200 6000    1000
    2.93287 0.000826608 -1.46402e-07 1.541e-11 -6.88805e-16 -813.066 -1.02433
    2.34433 0.00798052 -1.94782e-05 2.01572e-08 -7.37612e-12 -917.935 0.68301
;
oxidant         1       28.8503
    200 6000    1000
    3.10134 0.00124139 -4.18821e-07 6.64165e-11 -3.91278e-15 -985.276 5.35602
    3.58381 -0.000727005 1.67056e-06 -1.09178e-10 -4.31777e-13 -1050.54 3.11241
;
reactants       1       22.7535
    200 6000    1000
    3.06306 0.00114715 -3.56927e-07 5.48277e-11 -3.18029e-15 -946.149 3.90639
    3.3022 0.00125137 -3.13449e-06 4.49539e-09 -2.00955e-12 -1020.41 2.56045
;
burntProducts   1       24.543
    200 6000    1000
    2.85694 0.00194404 -5.90217e-07 8.40966e-11 -4.49004e-15 -10976.9 6.2227
    3.76275 -0.000787587 1.93485e-06 -3.14906e-10 -3.04738e-13 -11198.7 1.64274
;
products        1       25.6696
    200 6000    1000
    2.92086 0.00176026 -5.45388e-07 7.94723e-11 -4.33905e-15 -8363.54 5.99602
    3.71595 -0.000771742 1.86573e-06 -2.61097e-10 -3.37965e-13 -8544.46 2.02714
;
Tad = 2035.76

phi = 0.71
ft = 0.0204116
fuel fuel       1       2.01594
    200 6000    1000
    2.93287 0.000826608 -1.46402e-07 1.541e-11 -6.88805e-16 -813.066 -1.02433
    2.34433 0.00798052 -1.94782e-05 2.01572e-08 -7.37612e-12 -917.935 0.68301
;
oxidant         1       28.8503
    200 6000    1000
    3.10134 0.00124139 -4.18821e-07 6.64165e-11 -3.91278e-15 -985.276 5.35602
    3.58381 -0.000727005 1.67056e-06 -1.09178e-10 -4.31777e-13 -1050.54 3.11241
;
reactants       1       22.6864
    200 6000    1000
    3.06264 0.00114611 -3.56245e-07 5.47002e-11 -3.17223e-15 -945.719 3.89044
    3.2991 0.00127314 -3.18736e-06 4.54606e-09 -2.02691e-12 -1020.08 2.55437
;
burntProducts   1       24.543
    200 6000    1000
    2.85694 0.00194404 -5.90217e-07 8.40966e-11 -4.49004e-15 -10976.9 6.2227
    3.76275 -0.000787587 1.93485e-06 -3.14906e-10 -3.04738e-13 -11198.7 1.64274
;
products        1       25.63
    200 6000    1000
    2.91862 0.00176671 -5.46961e-07 7.96346e-11 -4.34435e-15 -8455.27 6.00397
    3.71759 -0.000772298 1.86815e-06 -2.62986e-10 -3.36799e-13 -8637.62 2.01365
;
Tad = 2053.64

phi = 0.72
ft = 0.0206932
fuel fuel       1       2.01594
    200 6000    1000
    2.93287 0.000826608 -1.46402e-07 1.541e-11 -6.88805e-16 -813.066 -1.02433
    2.34433 0.00798052 -1.94782e-05 2.01572e-08 -7.37612e-12 -917.935 0.68301
;
oxidant         1       28.8503
    200 6000    1000
    3.10134 0.00124139 -4.18821e-07 6.64165e-11 -3.91278e-15 -985.276 5.35602
    3.58381 -0.000727005 1.67056e-06 -1.09178e-10 -4.31777e-13 -1050.54 3.11241
;
reactants       1       22.6197
    200 6000    1000
    3.06222 0.00114508 -3.55569e-07 5.45735e-11 -3.16422e-15 -945.291 3.87459
    3.29602 0.00129477 -3.2399e-06 4.59641e-09 -2.04416e-12 -1019.75 2.54834
;
burntProducts   1       24.543
    200 6000    1000
    2.85694 0.00194404 -5.90217e-07 8.40966e-11 -4.49004e-15 -10976.9 6.2227
    3.76275 -0.000787587 1.93485e-06 -3.14906e-10 -3.04738e-13 -11198.7 1.64274
;
products        1       25.5906
    200 6000    1000
[...]
    3.76275 -0.000787587 1.93485e-06 -3.14906e-10 -3.04738e-13 -11198.7 1.64274
;
products        1       15.8215
    200 6000    1000
    2.88634 0.00151142 -4.18391e-07 5.75042e-11 -3.01837e-15 -7041.89 3.41697
    3.2136 0.00260703 -6.35533e-06 7.61098e-09 -3.04246e-12 -7218.47 1.27118
;
Tad = 1817.32

phi = 2.83
ft = 0.0766853
fuel fuel       1       2.01594
    200 6000    1000
    2.93287 0.000826608 -1.46402e-07 1.541e-11 -6.88805e-16 -813.066 -1.02433
    2.34433 0.00798052 -1.94782e-05 2.01572e-08 -7.37612e-12 -917.935 0.68301
;
oxidant         1       28.8503
    200 6000    1000
    3.10134 0.00124139 -4.18821e-07 6.64165e-11 -3.91278e-15 -985.276 5.35602
    3.58381 -0.000727005 1.67056e-06 -1.09178e-10 -4.31777e-13 -1050.54 3.11241
;
reactants       1       14.2769
    200 6000    1000
    3.00985 0.00101613 -2.70874e-07 3.87156e-11 -2.16188e-15 -891.751 1.89093
    2.91067 0.00400194 -9.81505e-06 1.08972e-08 -4.20316e-12 -978.525 1.79304
;
burntProducts   1       24.543
    200 6000    1000
    2.85694 0.00194404 -5.90217e-07 8.40966e-11 -4.49004e-15 -10976.9 6.2227
    3.76275 -0.000787587 1.93485e-06 -3.14906e-10 -3.04738e-13 -11198.7 1.64274
;
products        1       15.7922
    200 6000    1000
    2.88643 0.00150997 -4.17814e-07 5.74148e-11 -3.01342e-15 -7028.67 3.40754
    3.21176 0.00261844 -6.38319e-06 7.63762e-09 -3.05166e-12 -7205.09 1.26993
;
Tad = 1814.7

phi = 2.84
ft = 0.0769354
fuel fuel       1       2.01594
    200 6000    1000
    2.93287 0.000826608 -1.46402e-07 1.541e-11 -6.88805e-16 -813.066 -1.02433
    2.34433 0.00798052 -1.94782e-05 2.01572e-08 -7.37612e-12 -917.935 0.68301
;
oxidant         1       28.8503
    200 6000    1000
    3.10134 0.00124139 -4.18821e-07 6.64165e-11 -3.91278e-15 -985.276 5.35602
    3.58381 -0.000727005 1.67056e-06 -1.09178e-10 -4.31777e-13 -1050.54 3.11241
;
reactants       1       14.2534
    200 6000    1000
    3.0097 0.00101576 -2.70635e-07 3.86709e-11 -2.15906e-15 -891.6 1.88535
    2.90958 0.00400956 -9.83356e-06 1.0915e-08 -4.20924e-12 -978.409 1.79091
;
burntProducts   1       24.543
    200 6000    1000
    2.85694 0.00194404 -5.90217e-07 8.40966e-11 -4.49004e-15 -10976.9 6.2227
    3.76275 -0.000787587 1.93485e-06 -3.14906e-10 -3.04738e-13 -11198.7 1.64274
;
products        1       15.763
    200 6000    1000
    2.88653 0.00150852 -4.17239e-07 5.73259e-11 -3.0085e-15 -7015.5 3.39816
    3.20992 0.0026298 -6.41092e-06 7.66414e-09 -3.06082e-12 -7191.77 1.26868
;
Tad = 1812.1

phi = 2.85
ft = 0.0771854
fuel fuel       1       2.01594
    200 6000    1000
    2.93287 0.000826608 -1.46402e-07 1.541e-11 -6.88805e-16 -813.066 -1.02433
    2.34433 0.00798052 -1.94782e-05 2.01572e-08 -7.37612e-12 -917.935 0.68301
;
oxidant         1       28.8503
    200 6000    1000
    3.10134 0.00124139 -4.18821e-07 6.64165e-11 -3.91278e-15 -985.276 5.35602
    3.58381 -0.000727005 1.67056e-06 -1.09178e-10 -4.31777e-13 -1050.54 3.11241
;
reactants       1       14.23
    200 6000    1000
    3.00955 0.0010154 -2.70398e-07 3.86265e-11 -2.15625e-15 -891.45 1.87979
    2.9085 0.00401715 -9.852e-06 1.09326e-08 -4.21529e-12 -978.293 1.78879
;
burntProducts   1       24.543
    200 6000    1000
    2.85694 0.00194404 -5.90217e-07 8.40966e-11 -4.49004e-15 -10976.9 6.2227
    3.76275 -0.000787587 1.93485e-06 -3.14906e-10 -3.04738e-13 -11198.7 1.64274
;
products        1       15.734
    200 6000    1000
    2.88663 0.00150708 -4.16667e-07 5.72373e-11 -3.0036e-15 -7002.39 3.38881
    3.20809 0.00264111 -6.43854e-06 7.69054e-09 -3.06994e-12 -7178.51 1.26745
;
Tad = 1809.5

phi = 2.86
ft = 0.0774353
fuel fuel       1       2.01594
    200 6000    1000
    2.93287 0.000826608 -1.46402e-07 1.541e-11 -6.88805e-16 -813.066 -1.02433
    2.34433 0.00798052 -1.94782e-05 2.01572e-08 -7.37612e-12 -917.935 0.68301
;
oxidant         1       28.8503
    200 6000    1000
    3.10134 0.00124139 -4.18821e-07 6.64165e-11 -3.91278e-15 -985.276 5.35602
    3.58381 -0.000727005 1.67056e-06 -1.09178e-10 -4.31777e-13 -1050.54 3.11241
;
reactants       1       14.2067
    200 6000    1000
    3.00941 0.00101504 -2.70161e-07 3.85822e-11 -2.15345e-15 -891.3 1.87425
    2.90742 0.00402471 -9.87037e-06 1.09502e-08 -4.22132e-12 -978.178 1.78668
;
burntProducts   1       24.543
    200 6000    1000
    2.85694 0.00194404 -5.90217e-07 8.40966e-11 -4.49004e-15 -10976.9 6.2227
    3.76275 -0.000787587 1.93485e-06 -3.14906e-10 -3.04738e-13 -11198.7 1.64274
;
products        1       15.705
    200 6000    1000
    2.88673 0.00150564 -4.16097e-07 5.7149e-11 -2.99871e-15 -6989.34 3.3795
    3.20627 0.00265237 -6.46605e-06 7.71684e-09 -3.07903e-12 -7165.31 1.26621
;
Tad = 1806.91

phi = 2.87
ft = 0.077685
fuel fuel       1       2.01594
    200 6000    1000
    2.93287 0.000826608 -1.46402e-07 1.541e-11 -6.88805e-16 -813.066 -1.02433
    2.34433 0.00798052 -1.94782e-05 2.01572e-08 -7.37612e-12 -917.935 0.68301
;
oxidant         1       28.8503
    200 6000    1000
    3.10134 0.00124139 -4.18821e-07 6.64165e-11 -3.91278e-15 -985.276 5.35602
    3.58381 -0.000727005 1.67056e-06 -1.09178e-10 -4.31777e-13 -1050.54 3.11241
;
reactants       1       14.1835
    200 6000    1000
    3.00926 0.00101468 -2.69926e-07 3.8538e-11 -2.15066e-15 -891.151 1.86873
    2.90635 0.00403225 -9.88866e-06 1.09678e-08 -4.22733e-12 -978.063 1.78458
;
burntProducts   1       24.543
    200 6000    1000
    2.85694 0.00194404 -5.90217e-07 8.40966e-11 -4.49004e-15 -10976.9 6.2227
    3.76275 -0.000787587 1.93485e-06 -3.14906e-10 -3.04738e-13 -11198.7 1.64274
;
products        1       15.6762
    200 6000    1000
    2.88683 0.00150421 -4.15529e-07 5.70612e-11 -2.99385e-15 -6976.34 3.37023
    3.20445 0.00266359 -6.49344e-06 7.74302e-09 -3.08807e-12 -7152.16 1.26499
;
Tad = 1804.33

phi = 2.88
ft = 0.0779346
fuel fuel       1       2.01594
    200 6000    1000
    2.93287 0.000826608 -1.46402e-07 1.541e-11 -6.88805e-16 -813.066 -1.02433
    2.34433 0.00798052 -1.94782e-05 2.01572e-08 -7.37612e-12 -917.935 0.68301
;
oxidant         1       28.8503
    200 6000    1000
    3.10134 0.00124139 -4.18821e-07 6.64165e-11 -3.91278e-15 -985.276 5.35602
    3.58381 -0.000727005 1.67056e-06 -1.09178e-10 -4.31777e-13 -1050.54 3.11241
;
reactants       1       14.1604
    200 6000    1000
    3.00911 0.00101433 -2.69691e-07 3.84941e-11 -2.14788e-15 -891.003 1.86323
    2.90528 0.00403975 -9.90689e-06 1.09852e-08 -4.23331e-12 -977.949 1.78249
;
burntProducts   1       24.543
    200 6000    1000
    2.85694 0.00194404 -5.90217e-07 8.40966e-11 -4.49004e-15 -10976.9 6.2227
    3.76275 -0.000787587 1.93485e-06 -3.14906e-10 -3.04738e-13 -11198.7 1.64274
;
products        1       15.6475
    200 6000    1000
    2.88692 0.00150279 -4.14964e-07 5.69737e-11 -2.98901e-15 -6963.39 3.361
    3.20265 0.00267475 -6.52071e-06 7.7691e-09 -3.09708e-12 -7139.06 1.26376
;
Tad = 1801.76

phi = 2.89
ft = 0.078184
fuel fuel       1       2.01594
    200 6000    1000
    2.93287 0.000826608 -1.46402e-07 1.541e-11 -6.88805e-16 -813.066 -1.02433
    2.34433 0.00798052 -1.94782e-05 2.01572e-08 -7.37612e-12 -917.935 0.68301
;
oxidant         1       28.8503
    200 6000    1000
    3.10134 0.00124139 -4.18821e-07 6.64165e-11 -3.91278e-15 -985.276 5.35602
    3.58381 -0.000727005 1.67056e-06 -1.09178e-10 -4.31777e-13 -1050.54 3.11241
;
reactants       1       14.1374
    200 6000    1000
    3.00897 0.00101397 -2.69457e-07 3.84503e-11 -2.14511e-15 -890.855 1.85775
    2.90422 0.00404723 -9.92505e-06 1.10026e-08 -4.23928e-12 -977.835 1.7804
;
burntProducts   1       24.543
    200 6000    1000
    2.85694 0.00194404 -5.90217e-07 8.40966e-11 -4.49004e-15 -10976.9 6.2227
    3.76275 -0.000787587 1.93485e-06 -3.14906e-10 -3.04738e-13 -11198.7 1.64274
;
products        1       15.619
    200 6000    1000
    2.88702 0.00150137 -4.14401e-07 5.68866e-11 -2.98419e-15 -6950.5 3.35181
    3.20085 0.00268588 -6.54787e-06 7.79506e-09 -3.10605e-12 -7126.02 1.26255
;
Tad = 1799.2

phi = 2.9
ft = 0.0784334
fuel fuel       1       2.01594
    200 6000    1000
    2.93287 0.000826608 -1.46402e-07 1.541e-11 -6.88805e-16 -813.066 -1.02433
    2.34433 0.00798052 -1.94782e-05 2.01572e-08 -7.37612e-12 -917.935 0.68301
;
oxidant         1       28.8503
    200 6000    1000
    3.10134 0.00124139 -4.18821e-07 6.64165e-11 -3.91278e-15 -985.276 5.35602
    3.58381 -0.000727005 1.67056e-06 -1.09178e-10 -4.31777e-13 -1050.54 3.11241
;
reactants       1       14.1144
    200 6000    1000
    3.00883 0.00101361 -2.69224e-07 3.84066e-11 -2.14236e-15 -890.708 1.85229
    2.90316 0.00405467 -9.94314e-06 1.102e-08 -4.24522e-12 -977.722 1.77832
;
burntProducts   1       24.543
    200 6000    1000
    2.85694 0.00194404 -5.90217e-07 8.40966e-11 -4.49004e-15 -10976.9 6.2227
    3.76275 -0.000787587 1.93485e-06 -3.14906e-10 -3.04738e-13 -11198.7 1.64274
;
products        1       15.5905
    200 6000    1000
    2.88711 0.00149996 -4.1384e-07 5.67998e-11 -2.97939e-15 -6937.66 3.34265
    3.19905 0.00269695 -6.57492e-06 7.82092e-09 -3.11498e-12 -7113.04 1.26133
;
Tad = 1796.64

phi = 2.91
ft = 0.0786825
fuel fuel       1       2.01594
    200 6000    1000
    2.93287 0.000826608 -1.46402e-07 1.541e-11 -6.88805e-16 -813.066 -1.02433
    2.34433 0.00798052 -1.94782e-05 2.01572e-08 -7.37612e-12 -917.935 0.68301
;
oxidant         1       28.8503
    200 6000    1000
    3.10134 0.00124139 -4.18821e-07 6.64165e-11 -3.91278e-15 -985.276 5.35602
    3.58381 -0.000727005 1.67056e-06 -1.09178e-10 -4.31777e-13 -1050.54 3.11241
;
reactants       1       14.0915
    200 6000    1000
    3.00868 0.00101326 -2.68992e-07 3.83632e-11 -2.13961e-15 -890.561 1.84686
    2.9021 0.00406209 -9.96116e-06 1.10372e-08 -4.25113e-12 -977.609 1.77625
;
burntProducts   1       24.543
    200 6000    1000
    2.85694 0.00194404 -5.90217e-07 8.40966e-11 -4.49004e-15 -10976.9 6.2227
    3.76275 -0.000787587 1.93485e-06 -3.14906e-10 -3.04738e-13 -11198.7 1.64274
;
products        1       15.5622
    200 6000    1000
    2.88721 0.00149855 -4.13282e-07 5.67134e-11 -2.97461e-15 -6924.88 3.33354
    3.19727 0.00270798 -6.60185e-06 7.84667e-09 -3.12387e-12 -7100.11 1.26013
;
Tad = 1794.1

phi = 2.92
ft = 0.0789316
fuel fuel       1       2.01594
    200 6000    1000
    2.93287 0.000826608 -1.46402e-07 1.541e-11 -6.88805e-16 -813.066 -1.02433
    2.34433 0.00798052 -1.94782e-05 2.01572e-08 -7.37612e-12 -917.935 0.68301
;
oxidant         1       28.8503
    200 6000    1000
    3.10134 0.00124139 -4.18821e-07 6.64165e-11 -3.91278e-15 -985.276 5.35602
    3.58381 -0.000727005 1.67056e-06 -1.09178e-10 -4.31777e-13 -1050.54 3.11241
;
reactants       1       14.0688
    200 6000    1000
    3.00854 0.00101291 -2.6876e-07 3.83199e-11 -2.13687e-15 -890.415 1.84144
    2.90105 0.00406949 -9.97911e-06 1.10544e-08 -4.25703e-12 -977.496 1.77419
;
burntProducts   1       24.543
    200 6000    1000
    2.85694 0.00194404 -5.90217e-07 8.40966e-11 -4.49004e-15 -10976.9 6.2227
    3.76275 -0.000787587 1.93485e-06 -3.14906e-10 -3.04738e-13 -11198.7 1.64274
;
products        1       15.534
    200 6000    1000
    2.8873 0.00149715 -4.12726e-07 5.66274e-11 -2.96985e-15 -6912.15 3.32446
    3.19549 0.00271896 -6.62867e-06 7.87231e-09 -3.13273e-12 -7087.23 1.25893
;
Tad = 1791.56

phi = 2.93
ft = 0.0791805
fuel fuel       1       2.01594
    200 6000    1000
    2.93287 0.000826608 -1.46402e-07 1.541e-11 -6.88805e-16 -813.066 -1.02433
    2.34433 0.00798052 -1.94782e-05 2.01572e-08 -7.37612e-12 -917.935 0.68301
;
oxidant         1       28.8503
    200 6000    1000
    3.10134 0.00124139 -4.18821e-07 6.64165e-11 -3.91278e-15 -985.276 5.35602
    3.58381 -0.000727005 1.67056e-06 -1.09178e-10 -4.31777e-13 -1050.54 3.11241
;
reactants       1       14.0461
    200 6000    1000
    3.0084 0.00101256 -2.6853e-07 3.82767e-11 -2.13415e-15 -890.269 1.83604
    2.9 0.00407685 -9.997e-06 1.10716e-08 -4.2629e-12 -977.384 1.77214
;
burntProducts   1       24.543
    200 6000    1000
    2.85694 0.00194404 -5.90217e-07 8.40966e-11 -4.49004e-15 -10976.9 6.2227
    3.76275 -0.000787587 1.93485e-06 -3.14906e-10 -3.04738e-13 -11198.7 1.64274
;
products        1       15.5059
    200 6000    1000
    2.8874 0.00149576 -4.12172e-07 5.65417e-11 -2.9651e-15 -6899.47 3.31542
    3.19372 0.0027299 -6.65538e-06 7.89785e-09 -3.14155e-12 -7074.41 1.25773
;
Tad = 1789.04

phi = 2.94
ft = 0.0794293
fuel fuel       1       2.01594
    200 6000    1000
    2.93287 0.000826608 -1.46402e-07 1.541e-11 -6.88805e-16 -813.066 -1.02433
    2.34433 0.00798052 -1.94782e-05 2.01572e-08 -7.37612e-12 -917.935 0.68301
;
oxidant         1       28.8503
    200 6000    1000
    3.10134 0.00124139 -4.18821e-07 6.64165e-11 -3.91278e-15 -985.276 5.35602
    3.58381 -0.000727005 1.67056e-06 -1.09178e-10 -4.31777e-13 -1050.54 3.11241
;
reactants       1       14.0235
    200 6000    1000
    3.00825 0.00101221 -2.68301e-07 3.82338e-11 -2.13143e-15 -890.124 1.83067
    2.89896 0.00408419 -1.00148e-05 1.10887e-08 -4.26875e-12 -977.272 1.77009
;
burntProducts   1       24.543
    200 6000    1000
    2.85694 0.00194404 -5.90217e-07 8.40966e-11 -4.49004e-15 -10976.9 6.2227
    3.76275 -0.000787587 1.93485e-06 -3.14906e-10 -3.04738e-13 -11198.7 1.64274
;
products        1       15.4779
    200 6000    1000
    2.88749 0.00149437 -4.11621e-07 5.64564e-11 -2.96038e-15 -6886.85 3.30642
    3.19196 0.00274079 -6.68198e-06 7.92328e-09 -3.15033e-12 -7061.64 1.25654
;
Tad = 1786.52

phi = 2.95
ft = 0.0796779
fuel fuel       1       2.01594
    200 6000    1000
    2.93287 0.000826608 -1.46402e-07 1.541e-11 -6.88805e-16 -813.066 -1.02433
    2.34433 0.00798052 -1.94782e-05 2.01572e-08 -7.37612e-12 -917.935 0.68301
;
oxidant         1       28.8503
    200 6000    1000
    3.10134 0.00124139 -4.18821e-07 6.64165e-11 -3.91278e-15 -985.276 5.35602
    3.58381 -0.000727005 1.67056e-06 -1.09178e-10 -4.31777e-13 -1050.54 3.11241
;
reactants       1       14.0009
    200 6000    1000
    3.00811 0.00101186 -2.68072e-07 3.8191e-11 -2.12872e-15 -889.98 1.82531
    2.89792 0.0040915 -1.00326e-05 1.11057e-08 -4.27458e-12 -977.161 1.76805
;
burntProducts   1       24.543
    200 6000    1000
    2.85694 0.00194404 -5.90217e-07 8.40966e-11 -4.49004e-15 -10976.9 6.2227
    3.76275 -0.000787587 1.93485e-06 -3.14906e-10 -3.04738e-13 -11198.7 1.64274
;
products        1       15.45
    200 6000    1000
    2.88759 0.00149299 -4.11072e-07 5.63714e-11 -2.95568e-15 -6874.27 3.29746
    3.19021 0.00275163 -6.70846e-06 7.9486e-09 -3.15908e-12 -7048.92 1.25535
;
Tad = 1784.01

phi = 2.96
ft = 0.0799264
fuel fuel       1       2.01594
    200 6000    1000
    2.93287 0.000826608 -1.46402e-07 1.541e-11 -6.88805e-16 -813.066 -1.02433
    2.34433 0.00798052 -1.94782e-05 2.01572e-08 -7.37612e-12 -917.935 0.68301
;
oxidant         1       28.8503
    200 6000    1000
    3.10134 0.00124139 -4.18821e-07 6.64165e-11 -3.91278e-15 -985.276 5.35602
    3.58381 -0.000727005 1.67056e-06 -1.09178e-10 -4.31777e-13 -1050.54 3.11241
;
reactants       1       13.9785
    200 6000    1000
    3.00797 0.00101151 -2.67844e-07 3.81483e-11 -2.12603e-15 -889.836 1.81998
    2.89688 0.00409878 -1.00503e-05 1.11226e-08 -4.28039e-12 -977.05 1.76602
;
burntProducts   1       24.543
    200 6000    1000
    2.85694 0.00194404 -5.90217e-07 8.40966e-11 -4.49004e-15 -10976.9 6.2227
    3.76275 -0.000787587 1.93485e-06 -3.14906e-10 -3.04738e-13 -11198.7 1.64274
;
products        1       15.4223
    200 6000    1000
    2.88768 0.00149161 -4.10525e-07 5.62868e-11 -2.951e-15 -6861.75 3.28853
    3.18846 0.00276244 -6.73484e-06 7.97382e-09 -3.16779e-12 -7036.25 1.25417
;
Tad = 1781.5

phi = 2.97
ft = 0.0801748
fuel fuel       1       2.01594
    200 6000    1000
    2.93287 0.000826608 -1.46402e-07 1.541e-11 -6.88805e-16 -813.066 -1.02433
    2.34433 0.00798052 -1.94782e-05 2.01572e-08 -7.37612e-12 -917.935 0.68301
;
oxidant         1       28.8503
    200 6000    1000
    3.10134 0.00124139 -4.18821e-07 6.64165e-11 -3.91278e-15 -985.276 5.35602
    3.58381 -0.000727005 1.67056e-06 -1.09178e-10 -4.31777e-13 -1050.54 3.11241
;
reactants       1       13.9561
    200 6000    1000
    3.00783 0.00101117 -2.67617e-07 3.81058e-11 -2.12334e-15 -889.692 1.81466
    2.89585 0.00410603 -1.00679e-05 1.11395e-08 -4.28617e-12 -976.939 1.76399
;
burntProducts   1       24.543
    200 6000    1000
    2.85694 0.00194404 -5.90217e-07 8.40966e-11 -4.49004e-15 -10976.9 6.2227
    3.76275 -0.000787587 1.93485e-06 -3.14906e-10 -3.04738e-13 -11198.7 1.64274
;
products        1       15.3946
    200 6000    1000
    2.88777 0.00149024 -4.09981e-07 5.62026e-11 -2.94633e-15 -6849.28 3.27964
    3.18672 0.00277319 -6.76111e-06 7.99894e-09 -3.17647e-12 -7023.64 1.25299
;
Tad = 1779.01

phi = 2.98
ft = 0.080423
fuel fuel       1       2.01594
    200 6000    1000
    2.93287 0.000826608 -1.46402e-07 1.541e-11 -6.88805e-16 -813.066 -1.02433
    2.34433 0.00798052 -1.94782e-05 2.01572e-08 -7.37612e-12 -917.935 0.68301
;
oxidant         1       28.8503
    200 6000    1000
    3.10134 0.00124139 -4.18821e-07 6.64165e-11 -3.91278e-15 -985.276 5.35602
    3.58381 -0.000727005 1.67056e-06 -1.09178e-10 -4.31777e-13 -1050.54 3.11241
;
reactants       1       13.9339
    200 6000    1000
    3.00769 0.00101082 -2.67391e-07 3.80635e-11 -2.12067e-15 -889.549 1.80937
    2.89482 0.00411326 -1.00854e-05 1.11563e-08 -4.29194e-12 -976.829 1.76198
;
burntProducts   1       24.543
    200 6000    1000
    2.85694 0.00194404 -5.90217e-07 8.40966e-11 -4.49004e-15 -10976.9 6.2227
    3.76275 -0.000787587 1.93485e-06 -3.14906e-10 -3.04738e-13 -11198.7 1.64274
;
products        1       15.3671
    200 6000    1000
    2.88787 0.00148888 -4.09439e-07 5.61186e-11 -2.94169e-15 -6836.86 3.27078
    3.18499 0.0027839 -6.78727e-06 8.02395e-09 -3.18511e-12 -7011.08 1.25182
;
Tad = 1776.53

phi = 2.99
ft = 0.0806711
fuel fuel       1       2.01594
    200 6000    1000
    2.93287 0.000826608 -1.46402e-07 1.541e-11 -6.88805e-16 -813.066 -1.02433
    2.34433 0.00798052 -1.94782e-05 2.01572e-08 -7.37612e-12 -917.935 0.68301
;
oxidant         1       28.8503
    200 6000    1000
    3.10134 0.00124139 -4.18821e-07 6.64165e-11 -3.91278e-15 -985.276 5.35602
    3.58381 -0.000727005 1.67056e-06 -1.09178e-10 -4.31777e-13 -1050.54 3.11241
;
reactants       1       13.9117
    200 6000    1000
    3.00755 0.00101048 -2.67166e-07 3.80213e-11 -2.118e-15 -889.407 1.80409
    2.8938 0.00412046 -1.01029e-05 1.11731e-08 -4.29768e-12 -976.72 1.75997
;
burntProducts   1       24.543
    200 6000    1000
    2.85694 0.00194404 -5.90217e-07 8.40966e-11 -4.49004e-15 -10976.9 6.2227
    3.76275 -0.000787587 1.93485e-06 -3.14906e-10 -3.04738e-13 -11198.7 1.64274
;
products        1       15.3397
    200 6000    1000
    2.88796 0.00148752 -4.08899e-07 5.60351e-11 -2.93707e-15 -6824.5 3.26197
    3.18326 0.00279457 -6.81333e-06 8.04886e-09 -3.19371e-12 -6998.57 1.25065
;
Tad = 1774.05

phi = 3
ft = 0.0809191
fuel fuel       1       2.01594
    200 6000    1000
    2.93287 0.000826608 -1.46402e-07 1.541e-11 -6.88805e-16 -813.066 -1.02433
    2.34433 0.00798052 -1.94782e-05 2.01572e-08 -7.37612e-12 -917.935 0.68301
;
oxidant         1       28.8503
    200 6000    1000
    3.10134 0.00124139 -4.18821e-07 6.64165e-11 -3.91278e-15 -985.276 5.35602
    3.58381 -0.000727005 1.67056e-06 -1.09178e-10 -4.31777e-13 -1050.54 3.11241
;
reactants       1       13.8896
    200 6000    1000
    3.00741 0.00101014 -2.66941e-07 3.79793e-11 -2.11534e-15 -889.265 1.79883
    2.89277 0.00412763 -1.01203e-05 1.11898e-08 -4.3034e-12 -976.61 1.75797
;
burntProducts   1       24.543
    200 6000    1000
    2.85694 0.00194404 -5.90217e-07 8.40966e-11 -4.49004e-15 -10976.9 6.2227
    3.76275 -0.000787587 1.93485e-06 -3.14906e-10 -3.04738e-13 -11198.7 1.64274
;
products        1       15.3124
    200 6000    1000
    2.88805 0.00148616 -4.08361e-07 5.59518e-11 -2.93246e-15 -6812.18 3.25318
    3.18154 0.0028052 -6.83928e-06 8.07366e-09 -3.20228e-12 -6986.11 1.24949
;
Tad = 1771.58


end
