/*--------------------------------*- C++ -*----------------------------------*\
  =========                 |
  \\      /  F ield         | OpenFOAM: The Open Source CFD Toolbox
   \\    /   O peration     | Website:  https://openfoam.org
    \\  /    A nd           | Version:  dev
     \\/     M anipulation  |
\*---------------------------------------------------------------------------*/
FoamFile
{
    version     2.0;
    format      ascii;
    class       dictionary;
    location    "constant";
    object      phaseProperties;
}
// * * * * * * * * * * * * * * * * * * * * * * * * * * * * * * * * * * * * * //

type populationBalanceMultiphaseSystem;

phases (air1 air2 air3 water);

populationBalances (bubbles);

air1
{
    type            pureIsothermalPhaseModel;
    diameterModel   velocityGroup;
    velocityGroupCoeffs
    {
        populationBalance   bubbles;

        shapeModel          spherical;

        sizeGroups
        (
            f0 {dSph 2.6472201610E-02; value 5.0000000000E-10;}
            f1 {dSph 2.8516314790E-02; value 2.0000000000E-10;}
            f2 {dSph 3.0718268709E-02; value 4.0000000000E-10;}
            f3 {dSph 3.3090252012E-02; value 8.0000000000E-10;}
            f4 {dSph 3.5645392557E-02; value 1.5000000000E-09;}
            f5 {dSph 3.8397835576E-02; value 2.9000000000E-09;}
            f6 {dSph 4.1362814395E-02; value 5.7000000000E-09;}
            f7 {dSph 4.4556741007E-02; value 1.1000000000E-08;}
            f8 {dSph 4.7997294160E-02; value 2.1500000000E-08;}
            f9 {dSph 5.1703518614E-02; value 4.2000000000E-08;}
            f10{dSph 5.5695926879E-02; value 8.1900000000E-08;}
            f11{dSph 5.9996618320E-02; value 1.5950000000E-07;}
            f12{dSph 6.4629397027E-02; value 3.1070000000E-07;}
            f13{dSph 6.9619908288E-02; value 6.0460000000E-07;}
            f14{dSph 7.4995772590E-02; value 1.1757000000E-06;}
            f15{dSph 8.0786746904E-02; value 2.2836000000E-06;}
            f16{dSph 8.7024884740E-02; value 4.4295000000E-06;}
            f17{dSph 9.3744716047E-02; value 8.5770000000E-06;}
            f18{dSph 1.0098343332E-01; value 1.6572400000E-05;}
            f19{dSph 1.0878110624E-01; value 3.1934500000E-05;}
// ... 27 like lines cut

        );
    }

    residualAlpha   1e-6;
}

air2
{
    type            pureIsothermalPhaseModel;
    diameterModel   velocityGroup;
    velocityGroupCoeffs
    {
        populationBalance   bubbles;

        shapeModel          spherical;

        sizeGroups
        (
            f47{dSph 8.7306570017E-01; value 1.0000000000E+00;}
            f48{dSph 9.4048151557E-01; value 0.0000000000E+00;}
            f49{dSph 1.0131030009E+00; value 0.0000000000E+00;}
            f50{dSph 1.0913321246E+00; value 0.0000000000E+00;}
            f51{dSph 1.1756018938E+00; value 0.0000000000E+00;}
            f52{dSph 1.2663787514E+00; value 0.0000000000E+00;}
            f53{dSph 1.3641651564E+00; value 0.0000000000E+00;}
            f54{dSph 1.4695023670E+00; value 0.0000000000E+00;}
            f55{dSph 1.5829734383E+00; value 0.0000000000E+00;}
        );
    }

    residualAlpha   1e-6;
}

air3
{
    type            pureIsothermalPhaseModel;
    diameterModel   velocityGroup;
    velocityGroupCoeffs
    {
        populationBalance   bubbles;

        shapeModel          spherical;

        sizeGroups
        (
            f56{dSph 1.7052064454E+00; value 1.0000000000E+00;}
            f57{dSph 1.8368779600E+00; value 0.0000000000E+00;}
            f58{dSph 1.9787167982E+00; value 0.0000000000E+00;}
            f59{dSph 2.1315080559E+00; value 0.0000000000E+00;}
            f60{dSph 2.2960974494E+00; value 0.0000000000E+00;}
            f61{dSph 2.4733959981E+00; value 0.0000000000E+00;}
            f62{dSph 2.6643850705E+00; value 0.0000000000E+00;}
            f63{dSph 2.8701218120E+00; value 0.0000000000E+00;}
            f64{dSph 3.0917449976E+00; value 0.0000000000E+00;}
            f65{dSph 3.3304813381E+00; value 0.0000000000E+00;}
            f66{dSph 3.5876522644E+00; value 0.0000000000E+00;}
            f67{dSph 3.8646812476E+00; value 0.0000000000E+00;}
            f68{dSph 4.1631016726E+00; value 0.0000000000E+00;}
            f69{dSph 4.4845653305E+00; value 0.0000000000E+00;}
            f70{dSph 4.8308515589E+00; value 0.0000000000E+00;}
        );
    }

    residualAlpha   1e-6;
}

water
{
    type            pureIsothermalPhaseModel;
    diameterModel   constant;
    constantCoeffs
    {
        d               1e-4;
    }

    residualAlpha   1e-6;
}

populationBalanceCoeffs
{
    bubbles
    {
        continuousPhase water;

        coalescenceModels
        (
            constant
            {
                rate 1.0;
            }
        );

        binaryBreakupModels
        ();

        breakupModels
        ();

        driftModels
        ();

        nucleationModels
        ();
    }
}

blending
{
    default
    {
        type            none;
        continuousPhase water;
    }
}

surfaceTension
();

interfaceCompression
();

aspectRatio
();

drag
();

virtualMass
();

heatTransfer
();

phaseTransfer
();

lift
();

wallLubrication
();

turbulentDispersion
();

// ************************************************************************* //
