/*--------------------------------*- C++ -*----------------------------------*\
  =========                 |
  \\      /  F ield         | OpenFOAM: The Open Source CFD Toolbox
   \\    /   O peration     | Website:  https://openfoam.org
    \\  /    A nd           | Version:  dev
     \\/     M anipulation  |
\*---------------------------------------------------------------------------*/
FoamFile
{
    format      ascii;
    class       dictionary;
    location    "constant";
    object      phaseProperties;
}
// * * * * * * * * * * * * * * * * * * * * * * * * * * * * * * * * * * * * * //

type    thermalPhaseChangePopulationBalanceMultiphaseSystem;

phases (gas liquid);

populationBalances (bubbles);

gas
{
    type            purePhaseModel;

    diameterModel   velocityGroup;

    velocityGroupCoeffs
    {
        populationBalance    bubbles;

        shapeModel           spherical;

        sizeGroups
        (
            { dSph 1.0e-4; }
            { dSph 1.2e-4; }
            { dSph 1.44e-4; }
            { dSph 1.728e-4; }
            { dSph 2.074e-4; }
            { dSph 2.49e-4; }
            { dSph 2.99e-4; }
            { dSph 3.6e-4; }
            { dSph 4.3e-4; }
            { dSph 5.16e-4; }
            { dSph 6.19e-4; }
            { dSph 7.43e-4; }
            { dSph 8.92e-4; }
            { dSph 1.07e-3; }
            { dSph 1.28e-3; }
            { dSph 1.54e-3; }
            { dSph 1.85e-3; }
            { dSph 2.22e-3; }
            { dSph 2.67e-3; }
            { dSph 3.19e-3; }
// ... 7 like lines cut
        );
    }

    residualAlpha   1e-6;
}

liquid
{
    type            purePhaseModel;

    diameterModel   none;

    Sc              0.7;

    residualAlpha   1e-6;
}

populationBalanceCoeffs
{
    bubbles
    {
        continuousPhase liquid;

        coalescenceModels
        (
            PrinceBlanch
            {
                turbulence on;
                buoyancy   on;
                laminarShear off;
                C1  0.05;
            }
        );

        binaryBreakupModels
        (
            LehrMilliesMewes
            {}
        );

        breakupModels
        ();

        driftModels
        (
            phaseChange
            {
                interfaces (gas_liquid);
                dmdtf   thermalPhaseChange:dmdtf;
            }

            densityChange
            {}
        );

        nucleationModels
        (
            wallBoiling
            {
                velocityGroup gas;
            }
        );
    }
}

drag
{
    gas_dispersedIn_liquid
    {
        type            IshiiZuber;
    }
}

virtualMass
{
    gas_dispersedIn_liquid
    {
        type            constantCoefficient;
        Cvm             0.5;
    }
}

heatTransfer
{
    gas_dispersedIn_liquid_inThe_gas
    {
        type spherical;
    }

    gas_dispersedIn_liquid_inThe_liquid
    {
        type RanzMarshall;
    }
}

lift
{
    gas_dispersedIn_liquid
    {
        type wallDamped;

        lift
        {
            type Tomiyama;
            Cl 0.288;

            aspectRatio
            {
                type constant;
                E0 1;
            }
        }

        wallDamping
        {
            type    cosine;
            Cd      1.0;
            zeroWallDist 0.0002;
        }
    }
}

wallLubrication
{
    gas_dispersedIn_liquid
    {
        type            Antal;
        Cw1             -0.01;
        Cw2             0.05;
    }
}

turbulentDispersion
{
    gas_dispersedIn_liquid
    {
        type                LopezDeBertodano;
        Ctd                 1.0;
        residualAlpha       1e-3;
    }
}

blending
{
    default
    {
        type            continuous;
        phase           liquid;
    }
}

saturationTemperature
{
    gas_liquid
    {
        type function1;

        function scale;

        xScale 1e-6;
        scale   1;
        value
        {
            type                tableFile;
            format              csv;
            nHeaderLine         1;
            refColumn           1;
            componentColumns    (0);
            mergeSeparators     no;
            file "$FOAM_TUTORIALS/resources/thermoData/wallBoiling-saturation.csv";
            outOfBounds         clamp;
            interpolationScheme linear;
        }
    }
}

surfaceTension
{
    gas_liquid
    {
        type            constant;
        sigma           0.00176574;
    }
}

phaseTransfer
{}

// ************************************************************************* //
