/*--------------------------------*- C++ -*----------------------------------*\
  =========                 |
  \\      /  F ield         | OpenFOAM: The Open Source CFD Toolbox
   \\    /   O peration     | Website:  https://openfoam.org
    \\  /    A nd           | Version:  dev
     \\/     M anipulation  |
\*---------------------------------------------------------------------------*/
FoamFile
{
    version     2.0;
    format      ascii;
    class       dictionary;
    location    "constant";
    object      thermophysicalProperties.liquid;
}
// * * * * * * * * * * * * * * * * * * * * * * * * * * * * * * * * * * * * * //

thermoType
{
    type            heRhoThermo;
    mixture         pureMixture;
    transport       const;
    thermo          eConst;
    equationOfState rPolynomial;
    specie          specie;
    energy          sensibleInternalEnergy;
}

species
(
    air
    H2O
);

defaultSpecie H2O;

"(mixture|H2O)"
{
    specie
    {
        molWeight       18.0153;
    }
    equationOfState
    {
        C (0.001278 -2.1055e-06 3.9689e-09 4.3772e-13 -2.0225e-16);
    }
    thermodynamics
    {
        Cv          4195;
        Hf          -1.5879e+07;
    }
    transport
    {
        mu          3.645e-4;
        Pr          2.289;
    }
}

air
{
    specie
    {
        molWeight   28.9;
    }
    equationOfState
    {
        C (0.001278 -2.1055e-06 3.9689e-09 4.3772e-13 -2.0225e-16);
    }
    thermodynamics
    {
        Hf          0;
        Cv          4195;
    }
    transport
    {
        mu          3.645e-4;
        Pr          2.289;
    }
}


// ************************************************************************* //
