/*--------------------------------*- C++ -*----------------------------------*\
  =========                 |
  \\      /  F ield         | OpenFOAM: The Open Source CFD Toolbox
   \\    /   O peration     | Website:  https://openfoam.org
    \\  /    A nd           | Version:  dev
     \\/     M anipulation  |
\*---------------------------------------------------------------------------*/
FoamFile
{
    version     2.0;
    format      ascii;
    class       dictionary;
    location    "constant";
    object      thermophysicalProperties.liquid;
}
// * * * * * * * * * * * * * * * * * * * * * * * * * * * * * * * * * * * * * //

thermoType
{
    type            heRhoThermo;
    mixture         pureMixture;
    transport       const;
    thermo          eConst;
    equationOfState perfectFluid;
    specie          specie;
    energy          sensibleInternalEnergy;
}

species
(
    AIR
    H2O
);

inertSpecie H2O;

"(mixture|H2O)"
{
    specie
    {
        molWeight       18.0153;
    }
    equationOfState
    {
        R           3000;
        rho0        1027;
    }
    thermodynamics
    {
        Hf          -1.5879e+07;
        Cv          4195;
    }
    transport
    {
        mu          3.645e-4;
        Pr          2.289;
    }
}

AIR
{
    specie
    {
        molWeight   28.9;
    }
    equationOfState
    {
        R           3000;
        rho0        1027;
    }
    thermodynamics
    {
        Hf          0;
        Cv          4195;
    }
    transport
    {
        mu          3.645e-4;
        Pr          2.289;
    }
}


// ************************************************************************* //
