/*--------------------------------*- C++ -*----------------------------------*\
  =========                 |
  \\      /  F ield         | OpenFOAM: The Open Source CFD Toolbox
   \\    /   O peration     | Website:  https://openfoam.org
    \\  /    A nd           | Version:  dev
     \\/     M anipulation  |
\*---------------------------------------------------------------------------*/
FoamFile
{
    format      ascii;
    class       dictionary;
    location    "constant";
    object      phaseProperties;
}
// * * * * * * * * * * * * * * * * * * * * * * * * * * * * * * * * * * * * * //

type populationBalanceMultiphaseSystem;

phases (air1 air2 air3 water);

populationBalances (bubbles);

air1
{
    type            pureIsothermalPhaseModel;

    diameterModel   velocityGroup;

    velocityGroupCoeffs
    {
        populationBalance   bubbles;

        shapeModel          spherical;

        sizeGroups
        (
            { dSph 2.6472201610E-02; }
            { dSph 2.8516314790E-02; }
            { dSph 3.0718268709E-02; }
            { dSph 3.3090252012E-02; }
            { dSph 3.5645392557E-02; }
            { dSph 3.8397835576E-02; }
            { dSph 4.1362814395E-02; }
            { dSph 4.4556741007E-02; }
            { dSph 4.7997294160E-02; }
            { dSph 5.1703518614E-02; }
            { dSph 5.5695926879E-02; }
            { dSph 5.9996618320E-02; }
            { dSph 6.4629397027E-02; }
            { dSph 6.9619908288E-02; }
            { dSph 7.4995772590E-02; }
            { dSph 8.0786746904E-02; }
            { dSph 8.7024884740E-02; }
            { dSph 9.3744716047E-02; }
            { dSph 1.0098343332E-01; }
            { dSph 1.0878110624E-01; }
// ... 27 like lines cut
        );
    }

    residualAlpha   1e-6;
}

air2
{
    type            pureIsothermalPhaseModel;

    diameterModel   velocityGroup;

    velocityGroupCoeffs
    {
        populationBalance   bubbles;

        shapeModel          spherical;

        sizeGroups
        (
            { dSph 8.7306570017E-01; }
            { dSph 9.4048151557E-01; }
            { dSph 1.0131030009E+00; }
            { dSph 1.0913321246E+00; }
            { dSph 1.1756018938E+00; }
            { dSph 1.2663787514E+00; }
            { dSph 1.3641651564E+00; }
            { dSph 1.4695023670E+00; }
            { dSph 1.5829734383E+00; }
        );
    }

    residualAlpha   1e-6;
}

air3
{
    type            pureIsothermalPhaseModel;

    diameterModel   velocityGroup;

    velocityGroupCoeffs
    {
        populationBalance   bubbles;

        shapeModel          spherical;

        sizeGroups
        (
            { dSph 1.7052064454E+00; }
            { dSph 1.8368779600E+00; }
            { dSph 1.9787167982E+00; }
            { dSph 2.1315080559E+00; }
            { dSph 2.2960974494E+00; }
            { dSph 2.4733959981E+00; }
            { dSph 2.6643850705E+00; }
            { dSph 2.8701218120E+00; }
            { dSph 3.0917449976E+00; }
            { dSph 3.3304813381E+00; }
            { dSph 3.5876522644E+00; }
            { dSph 3.8646812476E+00; }
            { dSph 4.1631016726E+00; }
            { dSph 4.4845653305E+00; }
            { dSph 4.8308515589E+00; }
        );
    }

    residualAlpha   1e-6;
}

water
{
    type            pureIsothermalPhaseModel;
    diameterModel   none;

    residualAlpha   1e-6;
}

populationBalanceCoeffs
{
    bubbles
    {
        continuousPhase water;

        coalescenceModels
        (
            constant
            {
                rate 1.0;
            }
        );

        binaryBreakupModels
        ();

        breakupModels
        ();

        driftModels
        ();

        nucleationModels
        ();
    }
}

blending
{
    default
    {
        type            continuous;
        phase           water;
    }
}

surfaceTension
{}

interfaceCompression
{}

drag
{}

virtualMass
{}

heatTransfer
{}

phaseTransfer
{}

lift
{}

wallLubrication
{}

turbulentDispersion
{}

// ************************************************************************* //
